22
 energy: -35.555287344747 gnorm: 0.000531007061 xtb: 6.6.1 (8d0f1dd)
C            3.40168310635785       -0.78092288827914        0.00062905913173
C            3.27507332953363        0.59911962494203        0.00075301194158
C            2.12497595695745        1.37310930322569        0.00086308744244
C            0.77129025918619        1.02619098450950        0.00088254140248
C           -0.15625741937219        2.09167230525911        0.00100320193974
C           -1.52243023226081        1.92553278137620        0.00103732615227
C           -2.03125253652186        0.63056967457477        0.00094992032471
N           -3.28564205466518        0.15519159585495        0.00095587511717
C           -3.11745785285312       -1.17231138320153        0.00084119251554
N           -1.86470686755194       -1.62427785004360        0.00076082810810
C           -1.12126275718172       -0.49597299861183        0.00082660636034
C            0.26994250218031       -0.34878230014222        0.00078769712611
C            1.02478352633581       -1.52696845313627        0.00066189673836
C            2.39030975535550       -1.73329452658822        0.00058927171421
H            4.41500535980458       -1.16328272164803        0.00055514240697
H            4.20502806164628        1.15444173413951        0.00076515868439
H            2.30650733263324        2.44286671456174        0.00094835543520
H            0.24214841298334        3.09675580727598        0.00107178688407
H           -2.18740786389064        2.77591855523090        0.00113024834952
H           -3.95699833362031       -1.84339924179536        0.00081731228502
H            0.39992570018881       -2.41337766282094        0.00061369617764
H            2.71253607915476       -2.76689235358321        0.00048928886239
