30
 energy: -50.927882543115 gnorm: 0.000905582939 xtb: 6.6.1 (8d0f1dd)
N           -2.89451749483699        3.27373221838444       -0.02841385221392
C           -2.09703683610257        2.44945035700074       -0.01767509759206
C           -1.07241702800057        1.47813872780943       -0.00554632172490
C            0.25458385242855        1.89907507977259       -0.00068509983117
C            1.33937446841510        1.01475988003018        0.00762115918930
C            2.61460271785477        1.61401400856880        0.00837396160605
C            3.88558958600919        1.10172036894289        0.00697107673040
C            4.30437095903000       -0.24030395671805        0.00583502480914
N            5.64032031146097       -0.47351080499641        0.01591747269937
C            3.45403001693715       -1.35639078569324        0.01362572620920
C            2.08137401109963       -1.40960680526547        0.01922631113426
C            1.08633815490644       -0.41932157710766        0.01482009610111
C           -0.25759519662085       -0.84371156842401        0.01516263780855
C           -0.83512426260503       -2.12072224472048        0.02664502860832
C           -2.22644814338868       -1.98814677242769        0.01829798024397
N           -3.13649759009914       -2.99788307546083       -0.03510979517698
C           -2.55902463387132       -0.60524453490929        0.00331529952771
C           -3.86244128362323       -0.11790239059933        0.01195315168973
N           -4.96563652588880        0.21042344529678        0.03314935079870
C           -1.35254867943307        0.11292375047133        0.00200193780895
H            0.44911794797916        2.96233683757193       -0.00538300112739
H            2.57737411846382        2.69822911805691        0.00670863930083
H            4.68909764214883        1.82921764106750        0.00498301954874
H            5.99478457108220       -1.41085984807385       -0.04687442827585
H            6.29126231184430        0.28799118844850       -0.05162433612997
H            3.96261734883640       -2.31385942894475        0.01489241660264
H            1.68467413465026       -2.41643346906076        0.02410055367301
H           -0.32808642326038       -3.06802375587567        0.03899719545397
H           -4.10017543457044       -2.76737786643515        0.14099925928237
H           -2.83780066154614       -3.92684064920961        0.20578499454598
