28
 energy: -51.472750688421 gnorm: 0.000977823369 xtb: 6.6.1 (8d0f1dd)
N           -4.34041690995626        1.31749618687601       -0.44442515109680
C           -3.44665049554419        0.60770445690109       -0.32324643431503
C           -2.38447250941510       -0.31594606701211       -0.18494408903684
C           -2.67905103947843       -1.63700031928128       -0.51086955345174
N           -2.00985797273342       -2.73464041562561       -0.24089576426287
C           -0.79683535072514       -2.80208175943151        0.26032517028467
C            0.22244458179043       -1.85354176016190        0.30059505260160
C            1.43576570424440       -2.34717082114481        0.81248654342398
N            2.41037004645009       -2.77589520887304        1.24988579142293
C            0.15250477500818       -0.44752490482837        0.02448768927089
C           -1.11975735165632        0.27235527283213        0.12999258456408
N           -1.17851649310168        1.55965740546280        0.39065393522459
C           -0.07458299086914        2.32188713518755        0.42901955608244
N           -0.26413124643956        3.59744414029624        0.81062775695692
C            1.15641378649317        1.79199585734520        0.04477446396835
C            2.42354980391783        2.35966063978047       -0.16238159253515
C            3.29861300697170        1.36071500041724       -0.55047556826591
C            2.62965935210788        0.12678883243842       -0.57021184057068
N            3.17213251929959       -1.00316424438222       -1.06982538670221
C            1.26196874688895        0.36325401252791       -0.17163212898412
H           -3.64604666302262       -1.82156231065833       -0.97028614960435
H           -0.54058469595398       -3.79539866775503        0.62120832565068
H            0.47739813826295        4.26967712904717        0.74729000201601
H           -1.21010267538069        3.90136812436368        0.96436094074674
H            2.67485730762634        3.39859684436062       -0.04779311360962
H            4.33242762349472        1.49362168961589       -0.81032275945128
H            4.16679548610610       -0.99843824535417       -1.22528765122453
H            2.75723414701341       -1.90015596364538       -0.88283075280298
