29
 energy: -51.203931042292 gnorm: 0.000443508362 xtb: 6.6.1 (8d0f1dd)
N            5.07796998647264        1.06052715256839       -0.55875817576074
C            4.03767691729282        0.59785826992506       -0.39487443169997
C            2.76198351636456        0.06522256855790       -0.20027957036174
C            2.45353495148290       -1.27258994997108        0.07439274591939
C            1.06854265522377       -1.38385306843686        0.15121195272791
C            0.21694356329793       -2.47607192436481        0.36207400439577
N            0.66404455904897       -3.69986167200061        0.69880385625663
N           -1.09971254444352       -2.35649591740431        0.18452677537899
C           -1.66626796011245       -1.18006685412785       -0.05497375770207
C           -3.02283923341569       -1.29570983115600       -0.43977602825824
C           -3.97100826441681       -0.34939385597789       -0.73709297112235
C           -3.91403584113614        1.02921876655099       -0.53935308474973
C           -2.86229635979758        1.73668097904371        0.00476828198111
C           -1.55995596885744        1.31647093372163        0.27519181546956
C           -0.79966488266465        2.28770157137506        0.95301408808351
N           -0.22193886794785        3.09574888676569        1.53489642069887
C           -0.91363438390657        0.06753400955922        0.02170468899860
C            0.47633218142026       -0.06893963673389       -0.02910217078764
C            1.56626038445105        0.82745334204043       -0.26394466251030
N            1.56154550048086        2.11423492538156       -0.68624849711946
H            3.17599379859886       -2.06104931842091        0.18049272011485
H           -0.00114376853983       -4.44884546419160        0.77052026859145
H            1.64639080130797       -3.88627043417149        0.77308317613368
H           -3.31365144648454       -2.33091848479092       -0.56603786157794
H           -4.91182140375926       -0.72886199193533       -1.11654745787972
H           -4.80831649889918        1.59220360919594       -0.76911560940064
H           -3.05682886947365        2.77731228633756        0.24261386482659
H            2.46644000475581        2.55589615343482       -0.74792563368330
H            0.79225637575588        2.72405646422526       -0.46788656816269
