30
 energy: -55.743977224527 gnorm: 0.000780236354 xtb: 6.6.1 (8d0f1dd)
N           -5.26366074619620       -1.88479701092275        0.00146978649958
C           -4.43349239523402       -1.09084460658981       -0.00252420374073
C           -3.42156260592753       -0.09962582014654       -0.00249909856852
C           -3.91044266845059        1.19668478179978       -0.00474760578053
C           -3.19950386126149        2.38556691983469       -0.00480960022163
C           -1.83206689573435        2.54843730383379       -0.00215694210976
C           -0.77051692524774        1.62673955385438       -0.00213821475436
C            0.50573537188927        2.23891760333620        0.00125611935211
C            1.69580534069352        1.54445613923951        0.00022161074850
C            2.92736463230055        2.23590773971155        0.00474811260827
N            3.91386482465977        2.81975555453941        0.00728524953019
C            1.64279865540653        0.14264717270468       -0.00628339189497
C            2.60659371629082       -0.86920754458529       -0.01161021957075
C            3.99575857225581       -0.79474947961415       -0.02229254670586
N            5.14562410234393       -0.81562844199276       -0.03990562955364
C            1.86108867387129       -2.08879121193265       -0.02004943219308
N            2.38751088911805       -3.32676801849683        0.01032508950264
N            0.54579465763505       -1.86819932968692       -0.02065391343676
C            0.35791057173514       -0.51693100504983       -0.01033978581518
C           -0.85893860049470        0.18025282349382       -0.00620804485800
C           -2.07904820551315       -0.59362592837605       -0.00344861274527
N           -1.94507649613832       -1.91295571010571       -0.00209522147006
H           -4.99113332401932        1.27998219222775       -0.00593597948564
H           -3.79027076880711        3.29136418365325       -0.00609075268405
H           -1.50931521007634        3.58298311236676       -0.00036562542389
H            0.55151548573384        3.31841541058175        0.00501505965134
H            1.78578495849573       -4.11976230332717       -0.12142613016592
H            3.37829251533474       -3.43788157130273       -0.11475428754453
H           -2.76172664882962       -2.50424811706140        0.00315906786282
H           -0.96836491923356       -2.28672836608678       -0.00394839983236
