31
 energy: -54.652933009407 gnorm: 0.000565235220 xtb: 6.6.1 (8d0f1dd)
N           -5.74960188202367        1.43366601748404       -0.19888184574725
C           -4.64476546495268        1.12184877685406       -0.12118899117179
C           -3.32008594942068        0.68940020626203       -0.04650512449877
C           -2.17757449707867        1.48861762146937        0.02404338686864
C           -1.05067409434638        0.64971050391303        0.04209551703997
C           -1.53258842357591       -0.71406593523622        0.00505650589432
C           -0.58917708673433       -1.74263121014008        0.10137527975484
N           -0.91995347217142       -3.05670878184376        0.17686758083965
N            0.71349883344914       -1.47941213115108        0.08491959212798
C            1.19485464233473       -0.23684172299149        0.03633140032620
C            2.60811954472287       -0.23377576729387       -0.03584217613043
C            3.15065370307485       -1.54010770956185       -0.08615422199463
N            3.67136720068521       -2.56487007959862       -0.12486797170009
C            3.55263289863306        0.81819632563573       -0.05909573524385
N            4.85991967047819        0.47469707869287       -0.17805116274826
C            3.26356501677762        2.18464477707826        0.03113911060322
C            2.03025237183750        2.80301352831466        0.12229784827352
C            0.76010512905617        2.26385836056130        0.12981102551874
C            0.32803612393114        0.93129750398762        0.07172726334491
C           -2.93248365907753       -0.68091207733451       -0.07264231987950
N           -3.79850373070576       -1.74329392779118       -0.12373062259329
H           -2.19237544536605        2.56218138283885        0.04651424486444
H           -1.81724911499994       -3.30710384325794        0.55612074421716
H           -0.14697014845258       -3.67666980692427        0.36391718235403
H            5.57245460394205        1.18036226350750       -0.13573918601462
H            5.13167059990803       -0.49324163445236       -0.19410989398013
H            4.12781608693805        2.83758466600389        0.02395163585505
H            2.06898549022746        3.88405366839451        0.18556828675404
H           -0.04231713346359        2.98725363475355        0.18451267493452
H           -3.47182865669130       -2.56768709256431       -0.60421585059750
H           -4.75597494733539       -1.49702862630980       -0.33092247847117
