26
 energy: -46.432282826397 gnorm: 0.000492662716 xtb: 6.6.1 (8d0f1dd)
N           -4.60678446663853        0.84187812776412        0.10901029243101
C           -3.35562696445707        0.32316176782937        0.06845890371063
C           -3.00975036593309       -1.03227689458409       -0.07890044508335
C           -1.62482540532160       -1.04519552248090       -0.12358909803778
N           -0.74540315529703       -2.03133484327954       -0.27181323133657
C            0.54028254726214       -1.73256557855333       -0.21833392357730
N            1.38952057121804       -2.84480664397583       -0.32086459218954
C            1.07446491742162       -0.43127404718318       -0.05302646322172
C            2.45182345330872       -0.21382144650415        0.24876963857498
N            3.16469735971589       -1.17183084653610        0.85944742199847
N            3.16792708755463        0.84633909018229       -0.13689918524742
C            2.73219850053220        2.03284194628992       -0.43191246340642
N            1.62476158600373        2.64082817018857       -0.04154612690615
C            0.50598703844068        2.02986021086288        0.24494134396976
C            0.13888489452234        0.68736785566581        0.02440056483020
C           -1.21722746532296        0.35862440868099        0.02449593725249
N           -2.28435840147444        1.15384986158495        0.12840293690876
H           -4.68516945094005        1.80660772628024        0.38154842810247
H           -5.37725900380279        0.23024584118500        0.31290580658847
H           -3.68378643876851       -1.86172706538572       -0.14567014791159
H            0.83685413221375       -3.66443306116176       -0.54268395394558
H            2.15446953613136       -2.72639013529541       -0.97265637219737
H            2.72852649882631       -2.05133092992246        1.08791074753756
H            4.13863491061486       -1.00464042962358        1.04306125429180
H            3.43893675344283        2.66624933625194       -0.96164955852269
H           -0.29206087905301        2.67540388252002        0.59700383948686
