31
 energy: -59.453377439554 gnorm: 0.000980719988 xtb: 6.6.1 (8d0f1dd)
N           -5.60150543143084        0.34498599387008       -0.48152633034553
C           -4.49494735470985        0.05906957489771       -0.35640702942958
C           -3.14075120111771       -0.25086363761224       -0.21453990150120
C           -2.59788513884277       -1.47858409043771        0.16238617228695
C           -1.20252545782519       -1.37031504802342        0.13815541429295
C           -0.21402491576421       -2.32046122013266        0.41496661059838
N           -0.50319210580723       -3.55841912605030        0.85601865867377
C            1.13308180958925       -1.96184359013121        0.14384089992000
C            2.12631461746122       -2.95151450761353        0.25019077154139
N            2.89057461849442       -3.79955872215727        0.37959483163518
C            1.48033705912549       -0.68212342262539       -0.30542750598915
N            2.64156843232611       -0.52588222169923       -0.92469490137063
C            3.30929053713667        0.55234489812548       -1.18883834826918
N            3.30342716519715        1.70944358514425       -0.55851996237265
C            2.28896772996068        2.16275236608298        0.15614824351429
N            2.56540199058055        3.24669567132469        0.90461578408733
C            0.92814264820389        1.69897741021536        0.11203756149737
C           -0.00068524433451        2.59647238706413        0.65559638703687
N           -0.72241057437580        3.37652739105251        1.10291855745039
C            0.48195068580743        0.39713231272306       -0.20773706640120
C           -0.85728027062584       -0.00501511541069       -0.20476433372960
C           -2.08556128309236        0.67690085535143       -0.44812895915852
N           -2.29682936133599        1.89215734014966       -0.98911878842001
H           -3.17505660879881       -2.34802082198379        0.41899029542251
H            0.23152662605850       -4.24061746757248        0.94290142102317
H           -1.45894297189872       -3.85352384626249        0.94089898706451
H            4.08025095310607        0.44734207853169       -1.94567826482482
H            1.84645585047667        3.74645024366675        1.39875641088558
H            3.50226699813097        3.60973426382868        0.87167498907708
H           -1.58304642501323        2.59948833263990       -0.97169722061135
H           -3.25161128628173        2.21063127114452       -1.04132789208269
