28
 energy: -46.678561808054 gnorm: 0.000603282579 xtb: 6.6.1 (8d0f1dd)
N            2.54139834462385        3.33141331001746       -0.24337813194114
C            2.52100154261680        2.18118757945351       -0.15356803473750
C            2.52644463790380        0.79475620561574       -0.04431726471479
C            3.71139858409085        0.02284961904114        0.03408695879236
C            3.39852503136861       -1.31633062902350        0.14591731443814
C            1.99968550445263       -1.42854141256063        0.13897251034617
N            1.24832400688935       -2.51145221296406        0.27291374456213
C           -0.05098739003550       -2.35868382188898        0.19520394172464
C           -0.74593213537229       -1.14049589963748       -0.00280549706409
C           -2.16301007891511       -1.20486308835713       -0.20250907185213
N           -2.68893945487318       -2.41727009363709       -0.51854251445035
C           -3.10393927315311       -0.18668395606701       -0.04033839007388
C           -2.94830485504702        1.17843930224109        0.15361178937130
N           -4.06894889175498        1.92522326559144        0.33080213251424
C           -1.72672189808236        1.88775151117130        0.06687107433216
C           -0.46750652325162        1.39543004793306       -0.07029440928718
C            0.03439783897936        0.06807987342031       -0.03001523931634
C            1.42865753868892       -0.09379419360946        0.00567249648024
H            4.70160238830967        0.44322725789430        0.00848087559592
H            4.08936010470507       -2.13302959089231        0.22702908277035
H           -0.60185697678088       -3.27667437138051        0.35934281554490
H           -3.67193270494834       -2.49322109632046       -0.71056147696665
H           -2.09383657506601       -3.16807652869430       -0.81675276610362
H           -4.13609117742585       -0.52092885987182       -0.08976590870902
H           -4.96097588100793        1.48520166329664        0.46666881648819
H           -3.99002679444774        2.90705925148439        0.52472695823398
H           -1.82141009261075        2.96619259719026        0.10351933776773
H            0.30982327074383        2.14424263965422       -0.14839618344574
