26
 energy: -44.039928267765 gnorm: 0.000445501815 xtb: 6.6.1 (8d0f1dd)
N           -4.53497692444123       -2.47672070729734       -0.00151338292748
C           -3.83314199764057       -1.57088614572608       -0.00087316462630
C           -2.96580959971667       -0.44499076544689       -0.00052244787637
C           -3.59953379665597        0.80172691133515        0.00017416035519
C           -2.98543290694440        2.04066645155067        0.00070579834373
C           -1.63522463372660        2.34231785093187        0.00076411380274
C           -0.48291241802745        1.53793117828149        0.00033821242889
C            0.74277201621325        2.22690212383562        0.00064851038422
C            1.97015042211451        1.59648051900003        0.00027239851833
C            2.01208457590627        0.21371502797335       -0.00046805572181
C            3.08820540854574       -0.70048719708438       -0.00103063160539
C            4.44101493882879       -0.36284771821927       -0.00108504943658
N            5.55288927076139       -0.06929736067925       -0.00064742805297
C            2.54138689217017       -1.99964056566021       -0.00157815766656
C            1.16082097507064       -1.91719547064782       -0.00155074338470
C            0.78437663937929       -0.55565503298551       -0.00079956823714
C           -0.47067778647434        0.07465336308658       -0.00041185274597
C           -1.60873322240590       -0.74412263428058       -0.00080156611652
H           -4.68212774742821        0.78482120099911        0.00029366764916
H           -3.65321141552525        2.89299974174116        0.00112569278739
H           -1.41959341433577        3.40514323663395        0.00123668851144
H            0.71510655887482        3.30677646598251        0.00118758858815
H            2.88419187343176        2.17264978399543        0.00052569489240
H            3.11909259669936       -2.90610031586840       -0.00205300149634
H            0.50538472276615       -2.76851092181596       -0.00197210517605
H           -1.39267267593983       -1.80569483383527       -0.00136437999145
