28
 energy: -51.469920989219 gnorm: 0.000806262359 xtb: 6.6.1 (8d0f1dd)
N            4.23571931080566        2.16076283968333       -0.00726817928829
C            3.38728932909497        1.38946333604806        0.03090833260830
C            2.41534028376049        0.35983705711081        0.09534964556076
C            2.91135047985851       -0.88689528922842        0.47793267326539
C            2.27908975313156       -2.10304926846582        0.49924975437097
C            0.96616361245979       -2.40525959958147        0.08798723937325
N            0.66453676778506       -3.72439523691826       -0.00373746427379
C           -0.06281310909496       -1.47962370519092       -0.18696229419363
C           -1.23665168965403       -2.05272673693629       -0.68467013582871
N           -2.19036795668792       -2.55426394997282       -1.10052788421883
C           -0.09822329229397       -0.05284779310317       -0.04877824157175
C            1.08669071961141        0.78592053423347       -0.15058217719584
N            1.02099621607902        2.08765133222027       -0.45298548854506
C           -0.12921857053018        2.72083853029828       -0.50552323828847
C           -1.30579635822107        2.08501074038786       -0.16116890441292
C           -2.63201614790130        2.50861116456987        0.05222817380565
N           -3.40990960411595        1.50629535759062        0.42219844630927
C           -2.66500790506586        0.37453782234938        0.43004476756234
N           -3.25095218534278       -0.73621092437853        0.91190406098165
C           -1.29888767384716        0.65360094440646        0.06609108197014
H            3.95953565969206       -0.89073036576145        0.75363329759593
H            2.87748135156141       -2.95784137960440        0.78727375458615
H           -0.22662605954340       -4.02377231176511       -0.36081323158763
H            1.38934365467002       -4.41009720779094        0.10892194014523
H           -0.08761410886392        3.76511306963061       -0.78448513600625
H           -3.02057892400932        3.50637288171559       -0.03505949278685
H           -4.23637375203167       -0.60892597886530        1.09432509442787
H           -2.97222371760716       -1.65229937238205        0.59224695653502
