29
 energy: -54.425450527997 gnorm: 0.000546813779 xtb: 6.6.1 (8d0f1dd)
N            5.04293381442227       -1.66900548779935       -0.55402867092317
C            4.00109999348760       -1.19862574392616       -0.41448364393251
C            2.75088445940727       -0.60985271576237       -0.24719797921214
C            2.51145296849923        0.79373733406597       -0.21881470279082
N            3.48003228308418        1.74531284195844       -0.30360135754880
C            1.13149439835839        1.00351222894868       -0.02730144102347
C            0.33013787890580        2.10470349036585        0.29432860230924
N            0.83170324816562        3.35589214208674        0.50139904063601
N           -0.99495522837510        1.99644966360387        0.35426640058847
C           -1.61214787119166        0.83339400718270        0.21054062819532
N           -2.90414163732455        0.89754193743231       -0.07292517055962
C           -3.74815838472809       -0.11553352076790       -0.18671616429777
N           -4.87063651931259        0.16252333691325       -0.87605501111354
N           -3.72296808598653       -1.34048009210369        0.35946351469904
C           -2.61575492981632       -1.93088863340391        0.74615539832254
N           -1.35202002836580       -1.65182069692343        0.55390026341164
C           -0.85370117942258       -0.43910646438363        0.23696475272546
C            0.50076945116708       -0.29118570220867        0.01791981602834
C            1.52260229896856       -1.28300532635383       -0.08975289657055
N            1.26620939908632       -2.59546627992881       -0.05787806996194
H            3.20943149281567        2.65468897040137       -0.64162488275919
H            4.39557960072390        1.42775460820004       -0.58367979356689
H            0.15975419627396        4.01361036994545        0.86569589678008
H            1.77403943385521        3.43642261231879        0.84568512848671
H           -5.02192540512871        1.10476985974315       -1.18883961817263
H           -5.61582854491655       -0.51046200947528       -0.88198119006209
H           -2.78154854744661       -2.89343720412874        1.22915122781117
H            2.01228176732022       -3.26703335310410        0.00368498905164
H            0.31697207037522       -2.83978639959640        0.20173043424932
