32
 energy: -59.155297733138 gnorm: 0.000451871923 xtb: 6.6.1 (8d0f1dd)
N           -3.09112171651815        2.68659049633542        1.53029323842569
C           -2.17477328895035        2.25046194662085        0.99226869621920
C           -0.95363512901881        1.77120369264605        0.47328773386798
C            0.10991031171204        2.66748526559707        0.43107397992048
C            1.32875158303969        2.20176752899689       -0.01121667536316
C            2.55191473736232        2.83535159132572       -0.32085227926881
N            3.45849842250014        1.97141483803671       -0.73861518689343
C            2.90715986529776        0.73194074492121       -0.68060503722882
N            3.61986563705669       -0.27793836521760       -1.20604033134981
C            1.55199198476850        0.78973926070622       -0.21283915475078
C            0.53228493300980       -0.14239182815339        0.02842668192058
C            0.83267318603001       -1.49916516656725        0.32886780460767
C            2.13851886245740       -1.73906826822272        0.77356888241453
N            3.20011756609712       -1.98570405718701        1.15356523443712
C           -0.00526098973901       -2.64396339353459        0.34525031271148
N            0.56378868684192       -3.81950917970827        0.72237818174858
C           -1.32596623053751       -2.71111032443627       -0.08817394138131
C           -2.20330980204065       -1.69027212853172       -0.43957838249266
N           -3.40683609997416       -2.06772634132282       -0.93265030213818
C           -1.98376138606001       -0.29595929256187       -0.25546871446666
C           -3.09415331338130        0.49844719492774       -0.61779531105669
N           -4.01672551388358        1.03979385792727       -1.04256923008237
C           -0.81235926993216        0.40156368454494        0.10659018960328
H           -0.04196569693106        3.70178242793062        0.70072137257410
H            2.77349236249256        3.88521985935291       -0.26579174060776
H            3.44869912860899       -1.23513417878651       -0.94756815659256
H            4.56756759152185       -0.02880400041402       -1.44528378193304
H           -0.00822993331120       -4.63783707310172        0.82565448722402
H            1.48900154152962       -3.83297092693048        1.11535678124375
H           -1.73727863737036       -3.71209517503387       -0.14944412202239
H           -4.11467524522302       -1.38253967433898       -1.13433726733241
H           -3.63560603764911       -3.04118194081798       -1.01505358564961
