31
 energy: -59.452162859820 gnorm: 0.000544874687 xtb: 6.6.1 (8d0f1dd)
N            5.78649592763990        0.61705030774013       -1.03084790176258
C            4.69661350795467        0.36140110443704       -0.76940247976371
C            3.39207088353581       -0.01621574221565       -0.44023316267484
C            2.25281806483739        0.78638798065376       -0.44678775539034
C            1.14288591012768       -0.00036056241923       -0.07126802049822
C            1.63322297076176       -1.33919191582358        0.17268216029082
C            0.73995941430670       -2.30315055676734        0.60221434508280
N           -0.55433417391481       -2.08475915401170        0.61027073148219
C           -1.06430099880837       -0.88990747906693        0.27582767476958
C           -2.44851036436967       -0.93571778044216        0.04377887448126
C           -3.04073362481684       -2.21387144930913        0.10960768108501
N           -3.61096407676246       -3.21194817991043        0.13493434158080
C           -3.31691151697977        0.12757431279849       -0.35031248872142
N           -4.49679508334048       -0.20141154644245       -0.90969463392820
N           -3.13926185302426        1.41611928724222       -0.16028412303305
C           -2.05202842140921        2.06115394725860        0.23438082208432
N           -2.30092165779499        3.32888070248622        0.62001412946099
C           -0.69801342173118        1.61925386021408        0.19755938505458
C            0.22886045583823        2.66066312805782        0.37997292369578
N            0.89837323197028        3.57754105401226        0.57308957238137
C           -0.21942669240996        0.29111744906057        0.09871684935953
C            3.03201728072105       -1.33839082802344       -0.04520626573835
N            3.87808550034806       -2.37408100636478        0.07276536666460
H            2.24426179666883        1.82100996912320       -0.72930021580822
H            1.04615416191536       -3.29240354929481        0.92031239930051
H           -5.15312511142099        0.53343997162617       -1.10698861704448
H           -4.77641977687555       -1.16456210546856       -0.98573998201652
H           -3.24760907236325        3.66053394680872        0.56396327351785
H           -1.55450120096333        3.96002653672904        0.85534979701742
H            4.85937930421499       -2.23949991462906       -0.10046126996755
H            3.54695961194468       -3.27597751085884        0.36396151853803
