27
 energy: -46.941257294332 gnorm: 0.000889182720 xtb: 6.6.1 (8d0f1dd)
N            4.23633229290417        1.47896604070150        0.00038869613505
C            3.17952913606715        1.02929436722001        0.01566498763845
C            1.85429648276993        0.55364840576996        0.01776461718256
C            0.79134093912598        1.46296464465255        0.05378278911270
N            1.07561576869861        2.81284358181935        0.12202027348442
C           -0.55845575269275        1.01084315225070        0.05840205562972
C           -1.56509195508858        1.98898301261581        0.22465155817480
N           -2.79340379435140        1.99330061058022       -0.19436846106903
C           -3.54793361982559        0.98330876705934       -0.57203784025166
C           -3.38461454222865       -0.33187123786406       -0.19740492077366
C           -2.18869098177526       -0.92415085328259        0.24526072128996
N           -2.28699832912501       -2.14862834379279        0.78581356402661
C           -0.85800046047796       -0.40798068527234        0.03267933757024
C            0.20967033611031       -1.30020097626310       -0.06676353279759
C            0.35690985410733       -2.70199753465549       -0.21557768838848
C            1.71818658323405       -2.93293733656308       -0.29314838400374
N            2.46011660106033       -1.81405649115122       -0.17616694878692
C            1.58882091251645       -0.81789538703300       -0.06900907730281
H            2.05116400217797        3.04197745442198       -0.00264415260681
H            0.44272754022151        3.45328284271087       -0.32656871827319
H           -1.26817332618895        2.93135077618025        0.67591681755897
H           -4.45590045263321        1.27764703190493       -1.08600323579429
H           -4.24703768305769       -0.98452692114792       -0.25458569905338
H           -3.18774875945865       -2.57020129474263        0.93129073003965
H           -1.45929871127596       -2.61104733864606        1.12592728702759
H           -0.39991491174567       -3.45083562571569       -0.35830831633221
H            2.20599220983202       -3.88271428085787       -0.42362624163746
