34
 energy: -62.608508998487 gnorm: 0.000992096370 xtb: 6.6.1 (8d0f1dd)
N           -2.83270193732331        3.33463444357408        1.15060781999308
C           -2.50428152580714        2.31147864587625        0.74305904310509
C           -2.18549613442587        0.98517590688911        0.37096027106115
C           -3.24020237472112        0.09898197480782        0.60969395782595
C           -3.33548315881983       -1.24628346749186        0.36558779400803
C           -2.34695050992964       -2.10021070257264       -0.15710734977330
N           -2.75132793876384       -3.36128673607192       -0.47141941656360
C           -0.98068238291503       -1.79400958538226       -0.29851026370669
C           -0.22255947120289       -2.79481671327175       -0.91936457489525
N            0.35228286253078       -3.64409986418478       -1.44990148582335
C           -0.24957249551890       -0.59616484383384        0.00732019758341
C           -0.84640267332787        0.72414573213894       -0.02340460751269
C           -0.03183867100104        1.82070935426984       -0.37852375589262
C           -0.59157000598947        3.02632416101673       -0.83741687801836
N           -0.91022015262326        4.01219239821618       -1.33836862260691
C            1.38491094874151        1.74935622724416       -0.39734685227126
N            2.13269077564065        2.83617605874614       -0.72999982335111
C            1.94329279528510        0.55322338247424        0.03228814416686
C            3.26607259726310        0.15334390537025        0.34154415045331
N            4.39046134972928        0.91320024251695        0.31532326408426
N            3.32033204702961       -1.14262744284781        0.68134811311495
C            2.07977630749561       -1.64046710528162        0.59058278631638
N            1.86611988272601       -2.88866760872413        1.04110282305612
C            1.13080189634949       -0.63026472637744        0.18566129825926
H           -4.13296306239522        0.56901084263451        1.00650672103200
H           -4.29695687829177       -1.70771594064271        0.54852469239325
H           -3.73494971865586       -3.56224814669283       -0.50779046598440
H           -2.12749355647557       -3.98014152458652       -0.96188715699723
H            1.64217511217012        3.62121014576072       -1.13233186217143
H            3.07085846120789        2.67824752050351       -1.05696880192334
H            4.29224755328184        1.89619230527334        0.51280350392447
H            5.20096202571318        0.46450082637435        0.71384885443903
H            2.70629817505789       -3.40873415353971        1.23896479034891
H            1.06297903546544       -3.41381418608434        0.74350995812669
