29
 energy: -50.392747819766 gnorm: 0.000426546753 xtb: 6.6.1 (8d0f1dd)
N           -5.11194329064688        0.64762615896562        0.28988861220015
C           -4.00112812316420        0.35109327928933        0.21103183888348
C           -2.65453831568158       -0.03260140281972        0.11010835724367
C           -2.42599027235216       -1.41302041149684       -0.15780353984737
N           -3.45447252712338       -2.15216719464509       -0.62895869943847
N           -1.33182839191902       -2.10408489887039        0.10614168045408
C           -0.12353818227403       -1.65400608241130        0.33542162602282
C            0.45199892869318       -0.39761346552148        0.11241038198968
C           -0.28052739448395        0.84632738110042       -0.03290099957459
C            0.45272978700078        1.99937110174770       -0.35123038073787
N            1.76401438293815        2.09182208130507       -0.47910703468835
C            2.47782133091408        1.00718631260137       -0.24309110750144
C            3.85950368516974        0.83691015186909       -0.25643903848161
C            4.11529887974741       -0.51231176926349       -0.00317603333262
N            5.34751470261830       -1.08102586514543        0.12460694026407
C            2.89014456498647       -1.21098404100274        0.17628550939117
C            1.85912990606321       -0.30422628325252        0.05444386188838
C           -1.67963235396063        0.97886564958740        0.23922234021307
N           -2.13461041471262        2.19780784223843        0.60000668069249
H           -4.37773999860859       -1.76174601157387       -0.70671459216627
H           -3.32678353026149       -3.14753492165570       -0.68479841483877
H            0.55799845491532       -2.44108882325001        0.64205908672025
H           -0.06477928704828        2.92483545067612       -0.57955771674570
H            4.59062670792120        1.60106161122682       -0.43343138540184
H            6.13794884700422       -0.56181890319356       -0.21816139899729
H            5.41180614596507       -2.08325727289664        0.06685920703278
H            2.82222158928185       -2.26615931686705        0.37040987952931
H           -3.12236403100537        2.35186676826400        0.71612674963828
H           -1.50230737917681        2.96996215069434        0.70358122488850
