32
 energy: -59.175102379250 gnorm: 0.000759438558 xtb: 6.6.1 (8d0f1dd)
N            5.57632787210983       -0.66072422943318       -0.32559098577619
C            4.46700630548164       -0.36785572682866       -0.23356004059760
C            3.11907668532841        0.00882281524027       -0.10572530852853
C            2.88158662662758        1.32958405648089        0.37253847508333
N            3.86044135097780        1.97237830659260        1.03495402666532
N            1.81251153018646        2.05487525356705        0.09836166484775
C            0.61952246467962        1.67445012321397       -0.25133843866326
C            0.00307614334862        0.41174016126182       -0.14282809465161
C            0.72679750077378       -0.84170888447794       -0.11807891107539
C            0.01640297496675       -2.02797635273866        0.07130871841286
C           -1.37025630595030       -2.06949855537832        0.21416277592708
C           -2.00604057472981       -3.30263809675175        0.45710117982421
N           -2.51341059384897       -4.31540480237459        0.64548695943731
C           -2.11484749914770       -0.89477096394207        0.08919707323027
C           -3.48352675601363       -0.64437026704680        0.12557007817839
C           -3.66848552015429        0.72950220418556       -0.02541771421983
N           -4.84276726456992        1.39814906962089       -0.01672686718680
C           -2.38776793850424        1.36421625591378       -0.15674880957335
C           -2.26493611515337        2.73848582613025       -0.31924019473164
N           -2.24841207348615        3.88332655618463       -0.45977392723865
C           -1.40413402488585        0.36439439877281       -0.10177509000390
C            2.13425593605951       -0.94896617493518       -0.40879252564370
N            2.57148811542260       -2.10798054578359       -0.94103203146646
H            3.72189314302298        2.94308801318506        1.25790175809906
H            4.76760259272316        1.55484276364299        1.15343544274838
H           -0.01415040897179        2.50121595930231       -0.55555244627058
H            0.54665717179246       -2.96444249716283        0.17623615565969
H           -4.25777192015071       -1.37725684916991        0.24978391242631
H           -4.85292958795802        2.37799818402518       -0.24091225684840
H           -5.70563559762527        0.88605309054030       -0.04924795411358
H            1.92714898671606       -2.82820574968409       -1.21260987976893
H            3.55553804113148       -2.24660682774198       -1.10172611285602
