31
 energy: -60.250848692747 gnorm: 0.000465828915 xtb: 6.6.1 (8d0f1dd)
N            5.04403806519666        2.23260075597838       -0.35822314655116
C            4.26434226538016        1.39525676639148       -0.29288211292381
C            3.32593068742572        0.33829456811004       -0.21004119689812
C            3.79276451810761       -0.94718064390025       -0.54572737894868
N            3.24720152723635       -2.07574862699344       -0.21121006115046
C            2.05463016530602       -2.34227194995144        0.27806379855366
N            1.96588896460114       -3.49363096069670        0.95830563518247
C            0.84470176900481       -1.58717929207024        0.03466530053830
C           -0.34611242514060       -2.28071785320580       -0.10843060608266
C           -1.58385963847195       -1.63292640475036       -0.20957159193329
C           -2.74470686661417       -2.41369974568239       -0.39705772250993
N           -3.65280033821422       -3.09741333132149       -0.54733197500198
C           -1.63360934284879       -0.24985421407616       -0.07842173294579
C           -2.71758893659057        0.65371390199111       -0.08160353402418
C           -4.07766072437441        0.36687209709281       -0.20288328686064
N           -5.21147258830624        0.19881005560061       -0.29273113292525
C           -2.19204107599904        1.95175195817067        0.06709616093016
N           -2.89560314101840        3.09402869149514        0.12103295815854
C           -0.76744554597732        1.85936225469524        0.16529656318248
C            0.02033241080490        2.99659326824053        0.32534268422431
N            0.59993125223601        3.98297854005225        0.45977030420907
C           -0.40358835380398        0.50369342308893        0.08380491084543
C            0.85811526146236       -0.13809562746940        0.06761951268492
C            2.00957383983083        0.66200821430864        0.10362349941048
H            4.74591387824352       -1.03433365564766       -1.05616322610643
H            2.80017546391528       -4.04058683505409        1.09253544949093
H            1.09566250771339       -3.80888251321000        1.34897120334484
H           -0.33474931077623       -3.35902475298511       -0.18040001943454
H           -3.89717705150227        3.07107427444307        0.04210880420773
H           -2.42393678684722        3.97630750645703        0.21716592191991
H            1.83231527344056        1.71776868838190        0.27148348502822
