30
 energy: -54.921733668772 gnorm: 0.000923663548 xtb: 6.6.1 (8d0f1dd)
N           -5.55555055270376        0.47180224309080        0.77890714557166
C           -4.51436328004726        0.06756509816225        0.50476805895966
C           -3.22844049275050       -0.37529303607524        0.18840113611952
C           -2.87136831903650       -1.59282051814249       -0.37526644083543
C           -1.47045722395830       -1.62560904619236       -0.48279796275629
C           -0.59807470135228       -2.57989184864166       -0.97777629624168
N            0.70490363504303       -2.48323538371839       -0.81789105366332
C            1.23264540351870       -1.39719553577337       -0.25250363701239
N            2.44416850343416       -1.56048161791657        0.22152022138266
C            3.36004443400774       -0.70794456204251        0.62150899581359
N            4.32827908551169       -1.24476314232289        1.40405753061710
C            3.48107009158367        0.63762179383784        0.22691012510570
C            2.45834655883837        1.44447912950346       -0.24194462167654
N            2.77982960328580        2.71343219966504       -0.60592252483346
C            1.06524524242746        1.10718704505152       -0.26020876674320
C            0.21934101200718        2.17401202984821       -0.58880214636701
N           -0.45652637478439        3.07092167337268       -0.85414205914174
C            0.44853986202090       -0.15106660261539       -0.10623712846129
C           -0.93781168228371       -0.35936988679559       -0.01583188526162
C           -2.05059337341041        0.41073466467916        0.41643273832272
N           -2.09521313211219        1.57213203828718        1.10174115873960
H           -3.54637834894683       -2.37470821778520       -0.66889627567988
H           -0.95055267574667       -3.48156913288269       -1.46233180695669
H            4.31101696558769       -2.24080463029624        1.53806707257644
H            5.18169391358237       -0.74569160910464        1.57729105507530
H            4.45750034228850        1.09447889519782        0.32532324927995
H            3.74155132979299        2.99784888372657       -0.62834091300459
H            2.08163589896655        3.33830893250153       -0.96876209261890
H           -1.33850809804993        2.23274346271259        1.04126694583263
H           -3.01277773711401        1.95957467916829        1.26273782045829
