30
 energy: -50.915113394990 gnorm: 0.000928865413 xtb: 6.6.1 (8d0f1dd)
N           -4.00016258847202       -2.15544640040460       -0.00912853411488
C           -3.16094192603901       -1.36649394690965       -0.01551479518179
C           -2.21283944394321       -0.32167076080500       -0.02117023936093
C           -2.78007312862964        0.93197955087124       -0.32104684616212
N           -4.07949674209444        0.96840170526834       -0.72082128373511
C           -2.14453689234177        2.18345045814107       -0.19449807535772
C           -0.84876621858510        2.43520422319525        0.16564013313056
C            0.23152637939126        1.55589451809295        0.29110203519593
C            1.38868486011375        2.18303653841286        0.78224650389319
N            2.30252676876731        2.73836351600687        1.21103130383259
C            0.30585073187934        0.14862088623617        0.06281784849843
C           -0.85256174444550       -0.72136281318814        0.18892662596637
C           -0.63540468213743       -2.06867797514079        0.48709054710572
C            0.62547861866125       -2.64505460647233        0.51335255609229
C            1.71087741846807       -1.88258249556575        0.15138576910717
C            3.07805198686160       -2.21159507587167       -0.02662318289495
C            3.73904681398071       -1.09167779779980       -0.46571890575044
C            2.83167534584355       -0.00651670152622       -0.55094129931157
N            3.16404096833043        1.16036609326680       -1.14016303030672
C            1.54508311192694       -0.47455568162263       -0.12372979353457
H           -4.63692946312452        0.13153979161239       -0.70281900681475
H           -4.55177297019001        1.85197472590589       -0.78614182888885
H           -2.78411827583062        3.04409944984966       -0.34368363305612
H           -0.60243337906080        3.47587665389190        0.34860161097205
H           -1.49174370821596       -2.69502336907110        0.68639095301110
H            0.73736604753423       -3.69057815825053        0.75959172955165
H            3.50565491175961       -3.18268267981746        0.14129853181840
H            4.77957160117939       -1.02447004481322       -0.72611465373106
H            4.14133668330664        1.33182742300707       -1.30638361128306
H            2.57075816340485        1.96800775190085       -1.06931295708985
