30
 energy: -50.126641505086 gnorm: 0.000932862618 xtb: 6.6.1 (8d0f1dd)
N           -1.99027245911364        3.42518977348003        0.01690736948349
C           -1.74709295565846        2.30082352953031       -0.00461456926316
C           -1.55190635831685        0.89929307099692       -0.01337600691097
C           -2.73304870477377        0.11867984246480       -0.01266082206305
N           -3.91494864049608        0.79693432425644       -0.07009053023743
C           -2.81030860077271       -1.26863404158621        0.00207309101345
C           -1.78643081464549       -2.21642443941559        0.01767411700132
N           -2.17700521587921       -3.52944497490162        0.09041698735603
C           -0.40852381099840       -1.98758275131808        0.01657558026290
C            0.34572189270877       -0.82042643586205        0.00143479615767
C           -0.18740920535738        0.54306754958486       -0.01448852788716
N            0.60043812686715        1.61583515661671       -0.02444570021766
C            1.93013364316056        1.52015737650354       -0.02517057336810
N            2.59522963466277        2.69132068722546       -0.05883172646938
C            2.57127240906397        0.27503051770756       -0.01167532592975
C            3.91154521231014       -0.12712478726897       -0.00428357870654
C            3.93598503399370       -1.52207070464666        0.01342577502562
C            2.63667271820825       -2.00679512272746        0.01803360412057
C            1.75237022108032       -0.90823038813871        0.00267982362056
H           -3.91426673464523        1.79715342340912        0.03471138961349
H           -4.77672977169063        0.30494184184509        0.08207143772536
H           -3.81674434519552       -1.67303972844281        0.00324002704337
H           -3.13391270802297       -3.76314605020885       -0.10818649278853
H           -1.49280511980867       -4.24356432013740       -0.08810381197818
H            0.18521593871567       -2.89384962454675        0.03208626832915
H            3.59433064279405        2.71613706314254        0.02541607713055
H            2.05805225115988        3.53933513938549       -0.00809585956437
H            4.77377799543336        0.51608765930211       -0.01159030045767
H            4.82574786518567       -2.12672113742696        0.02265764806331
H            2.36858315413074       -3.04792771842283        0.03212155719492
