25
 energy: -42.722039291107 gnorm: 0.000917303588 xtb: 6.6.1 (8d0f1dd)
N           -4.41413783784735       -0.36246201363075       -0.00985125976084
C           -3.09871422709308       -0.04470897035971        0.00256954689803
C           -2.17540417058795       -1.10000517425288        0.01159411995250
C           -0.77739668204474       -1.05155082687990        0.01344568234761
C           -0.07348451450433       -2.27708292407058        0.01479010540333
C            1.29934123108771       -2.38017944988831        0.00660821081165
C            2.04926003689917       -1.21029778382962       -0.00388887079837
C            3.41442345121352       -0.87329274661555       -0.01156099909713
N            3.62060211611253        0.44861223800883       -0.01606094752570
C            2.40739988181254        1.03033240254490       -0.01126108877932
N            2.18367650133652        2.34179842936549       -0.01396426017251
C            1.36014280177361        0.04786982721034       -0.00377603176202
C           -0.01254845811276        0.19012239112000        0.00692715146418
N           -0.47689251033114        1.46636110267066        0.01421921562660
C           -1.71688985396450        1.86719726452128        0.02261442861154
N           -2.89459289737640        1.27792726805889        0.01203924071054
H           -5.07733056841999        0.39175298862699       -0.03180528556384
H           -4.73043423265828       -1.31402594873214       -0.03827760321845
H           -2.61294447724871       -2.09233757009674        0.01039109757798
H           -0.66495827083765       -3.18262391815985        0.02201369518813
H            1.77561050936050       -3.34994709849017        0.00855084919853
H            4.25418656296234       -1.54498266443822       -0.01347104237972
H            1.20597778978743        2.61153239272410       -0.00149828894401
H            2.94478955296963        2.99716154591339       -0.01065181428434
H           -1.80730249218861        2.95556412697955        0.03784381679564
