30
 energy: -54.919458008346 gnorm: 0.000760320112 xtb: 6.6.1 (8d0f1dd)
N           -4.89792438297858        2.25036649222955       -0.26342729775062
C           -4.04104948733105        1.48908233705218       -0.20550389651699
C           -3.00350123766842        0.53511834954615       -0.12939630657661
C           -3.34111528430134       -0.80445514767414       -0.40366528399187
N           -2.65532032241189       -1.85808802600760       -0.09363656699980
C           -1.41023633965016       -2.00095356644649        0.33572012469467
N           -1.20395826691161       -3.12505761727510        1.04303512730812
C           -0.29922532650067       -1.14630593299469        0.02762208469029
C            0.98803702862665       -1.68016404688458       -0.14771249672755
N            1.18449615662501       -3.06024104241651       -0.23032063019296
C            2.12590753331671       -0.84808034678484       -0.20722075408501
C            3.39245501581403       -1.41356852148372       -0.42741179818049
N            4.41901297828132       -1.89364778405105       -0.62525810564915
C            1.99609537355534        0.53283578741740       -0.03611320803264
C            2.86493355701319        1.61272635826724       -0.01208135113879
C            2.04059489286285        2.74100794593155        0.14725181758088
N            2.43183729621799        4.02727535382952        0.27476918268301
N            0.72065891603073        2.42746614624336        0.21910308873511
C            0.65894313406229        1.10071267139029        0.12010251928278
C           -0.49584987463533        0.29787868905016        0.08067602139553
C           -1.70995885998215        0.98625867363210        0.12215212718219
H           -4.30777382763686       -1.00985278108552       -0.85334891908605
H           -0.28247611152906       -3.35866104625634        1.37311196128641
H           -1.99432219099677       -3.70551922809502        1.26692627640404
H            0.47717511358965       -3.56841584918586       -0.74179292495092
H            2.12128857449157       -3.30831863295199       -0.52161015332004
H            3.93308299665117        1.60450919048663       -0.09928080606769
H            1.71737849045933        4.73303793608542        0.23931808466157
H            3.37351277777179        4.28217874650794        0.03744255636696
H           -1.58713855113536        2.05486408582424        0.25821155989494
