24
 energy: -43.004575034803 gnorm: 0.000512817938 xtb: 6.6.1 (8d0f1dd)
N            0.01346684781077       -3.31888324744899       -0.12181347260781
C            0.35078275573329       -1.98943821889691       -0.07717331441204
N            1.64373181980317       -1.76112231653055       -0.08434099676215
C            2.04225779693689       -0.49327911710051       -0.04580900746878
N            3.28037772478014       -0.00262968955665        0.01069996335282
C            3.09674252896538        1.32388143759476        0.00533974717501
N            1.84335205018207        1.76319641424906       -0.03465309195225
C            1.10517521312917        0.61621637661765       -0.07289302119781
C           -0.25927437692902        0.40138373982940       -0.05298460875733
C           -1.13071792490639        1.56598378857675       -0.01732482287670
N           -0.52238788865092        2.73047906575887        0.13504626958118
N           -2.44820872216503        1.63651263237261       -0.20889793477875
C           -3.32517006429169        0.67040767912186       -0.15762844591638
C           -3.17585420822032       -0.67188084260523        0.18920875655767
C           -1.99476208152387       -1.38959458717679        0.25234035062474
C           -0.68263184335458       -0.97510228727165        0.01269842419631
H           -0.82491070599350       -3.59924397152050       -0.60172854039835
H            0.81670040185201       -3.91018268179579       -0.27505998920701
H            3.92868050144253        2.00352219214059        0.04531112086126
H            0.52178402421135        2.73074007128661        0.13558430786063
H           -1.08110549556851        3.56830252893182        0.11329130307340
H           -4.33394488817179        1.00886085680565       -0.38221056046677
H           -4.09073888049951       -1.22597955673426        0.35059756682122
H           -2.11273685417173       -2.43963614734807        0.48971287259759
