29
 energy: -55.996872317673 gnorm: 0.000758315871 xtb: 6.6.1 (8d0f1dd)
N           -5.98594973778716       -0.61231804703631       -0.31427531423094
C           -4.89233874897900       -0.26973975401683       -0.23839938465993
C           -3.54087654293392        0.12247588262596       -0.13814596230251
C           -3.22003904034674        1.43304138404822       -0.49208830086562
N           -2.17401539314198        2.09984778057245       -0.08109180272793
C           -1.01290202166791        1.70473941196950        0.32483561035713
C           -0.41693234032893        0.43662058203422        0.09466266799135
C           -1.18882666955401       -0.78863082676780        0.06098857765916
C           -0.47547346035383       -1.99166929144062       -0.10746247199972
N            0.82855030514796       -2.11105224753357       -0.21392427177141
C            1.56070512848946       -1.01871873168503       -0.10700436610207
C            2.96169189623184       -0.87755822302677       -0.11957631259603
C            3.92431471445444       -1.88313678038523       -0.19797343871019
N            4.76286730108465       -2.66749695828028       -0.25960557028931
C            3.25443782348533        0.50348398059341       -0.03062425788922
N            4.48321675182759        1.04520515969032       -0.01083671714866
C            2.03261430164612        1.23400070326122        0.05169179633562
C            1.97167030473071        2.62250858702997        0.11814882663264
N            1.96522613487819        3.77278667432777        0.17730457147744
C            0.97171938351777        0.30969284029920        0.02859113188333
C           -2.60285396542300       -0.86795882515201        0.27580407513129
N           -3.10888713063116       -2.00578876901064        0.77604759795263
H           -3.95590028326306        2.02247039544615       -1.02688698603182
H           -0.40323546675314        2.47590748289056        0.78289072140276
H           -1.01066090607540       -2.92374427027505       -0.24064810837276
H            4.59762803564477        2.04286485065354        0.02636805843778
H            5.29207196977500        0.45391605991607       -0.08888998840586
H           -4.10747432961797       -2.13402995965590        0.82592217275132
H           -2.50727191875668       -2.76691974259623        1.03994731999488
