31
 energy: -54.652485114618 gnorm: 0.000797398371 xtb: 6.6.1 (8d0f1dd)
N            4.90785057000791        1.77738262907651       -0.09447857281165
C            3.94348803787902        1.14751304758874       -0.06798227198043
C            2.79394741846288        0.36703292072909       -0.02919244802161
C            2.76726316518182       -1.04972441014945        0.00951456710512
N            3.84998889932828       -1.85681158395557       -0.03055520975073
C            1.42076981467222       -1.47958831628575        0.05073203850133
C            1.08282098627366       -2.82586299714904        0.09822578355359
N            0.87756929197514       -3.96094313017545        0.14245116693804
C            0.58503919733708       -0.32606466470626        0.03748641236378
C            1.46071157759537        0.82172685630162       -0.01592036232528
C            0.93850406669643        2.10259846875730       -0.07638174788214
C           -0.43348320094926        2.29793182119804       -0.04418586501129
N           -0.91665345512196        3.59494254049575       -0.07869957313892
C           -1.33173885892194        1.19535485870256        0.07225061302571
C           -2.67458771160329        1.48936954744404        0.34482053573892
N           -3.78639174849553        0.80499315083284        0.23966389703249
C           -3.93870596442747       -0.48373540044843       -0.03025115726614
N           -5.20187302983769       -0.84021583233193       -0.33688075693261
C           -2.95631510045987       -1.50090216638692        0.05915213253230
C           -1.60160970513224       -1.32984882837350        0.11468818657656
C           -0.80214953758244       -0.16583215305195        0.05202778688172
H            3.73282595386796       -2.84367257009694        0.12054186160024
H            4.76656782806980       -1.45687832499813        0.06734902907887
H            1.60353043364188        2.95221241907679       -0.14811437224777
H           -1.79711011368917        3.75219985063688       -0.54020857122546
H           -0.21934986273139        4.29087569799894       -0.29327708783450
H           -2.87364973950544        2.50554029741094        0.67610834764886
H           -5.91232420729432       -0.12943130866110       -0.34443946161392
H           -5.45292997803955       -1.80097085039810       -0.48269680445761
H           -3.32742604583978       -2.51749665807717        0.05661189958839
H           -1.03079993504388       -2.24803734118838        0.16701895442794
