27
 energy: -52.552268148562 gnorm: 0.000716367691 xtb: 6.6.1 (8d0f1dd)
N            5.19825878864704       -2.68796807715449       -0.00152801665433
C            4.22995994930297       -2.07368213993802        0.00050847285680
C            3.02809617591887       -1.32793263748195        0.00017730055009
C            1.83043641591569       -2.08404268774281        0.00214911985761
N            0.58794301263545       -1.72064070626469        0.00191032915694
C            0.04274503856148       -0.49900230445027        0.00063587315642
C            0.71292590540484        0.81455338096062        0.00018708498159
N            0.03995962458334        1.95163396994037       -0.00008081941833
C           -1.29787099439007        1.99889982031879       -0.00024999529980
N           -1.83127551032455        3.22381154575682       -0.00020798333967
C           -2.06096383694944        0.81556715994012       -0.00051908692915
C           -3.42151244263505        0.53893523424911       -0.00069617093772
C           -3.57185115832548       -0.87196902001716       -0.00045442213331
C           -4.80678361930647       -1.53772120133103       -0.00055736051666
N           -5.82386136353464       -2.06945755460188       -0.00083445582956
C           -2.31768155859738       -1.47375755430090       -0.00002776271920
C           -1.35100231359315       -0.44376092031961       -0.00004662809604
C            2.12380313222039        0.99940172845841       -0.00079371294631
C            2.53542183949533        2.35853986283503       -0.00400170083967
N            2.91226240687616        3.44083202275018       -0.00048217844335
C            3.14437813004241        0.05929465781851       -0.00118849001072
H            1.96023453975153       -3.16432813984892        0.00388377054759
H           -1.20775790521952        4.01412193156631       -0.00001755492680
H           -2.82614526849489        3.35957305381970       -0.00048178774759
H           -4.23422957015211        1.24204804826366       -0.00096193483195
H           -2.10967021229441       -2.52564273210843        0.00026868653581
H            4.15366122076174        0.45746063728258       -0.00242804402274
