30
 energy: -54.921485398766 gnorm: 0.000922956444 xtb: 6.6.1 (8d0f1dd)
N           -5.76548669577707       -0.31099093441162       -0.26252651131467
C           -4.67414112201601        0.04180005005749       -0.18229228135283
C           -3.33424459306585        0.48094319020271       -0.07967486422807
C           -3.20211877612517        1.83386183587762        0.15966841637497
C           -2.03865492094891        2.59639825622470        0.22301288101440
C           -0.74975155002467        2.13823854682151        0.11566232627230
C           -0.23227043658002        0.83256901499749        0.06211955366904
C           -0.95466501456467       -0.43937899418282        0.05387667683885
C           -0.15600786094975       -1.62023272597975        0.21786617189737
N           -0.73895722096804       -2.87724850943456        0.42631455976604
N            1.15758919110007       -1.66906911285214        0.17889897300788
C            1.82890887954265       -0.53634893060317        0.01733706899605
C            3.19460488758830       -0.25562772173717       -0.07805913415060
C            4.28901287373670       -1.10846528902569       -0.13232862519548
N            5.23303225380082       -1.76514618938725       -0.18840461664957
C            3.26173299860083        1.17491960725429       -0.10834669149060
N            4.39355887149592        1.89712036161972       -0.16583960439849
N            2.05734450362227        1.75993618161911       -0.04468217749909
C            1.16273202489990        0.75458216549605        0.01466001329167
C           -2.33586680389727       -0.55246127883637       -0.22430205707826
N           -2.82130466572178       -1.73054012435212       -0.64977582934758
H           -4.13691249482768        2.37388020543512        0.26150358382544
H           -2.17306135172056        3.66238066275088        0.34422508337317
H            0.03757028511955        2.88282575142746        0.11414677827798
H           -1.43993081821236       -2.90306747013576        1.15572242054805
H           -0.00340012428389       -3.55517782292014        0.59071401094244
H            5.27196566117988        1.43518740499885       -0.31979732702746
H            4.32664616066326        2.89427309238194       -0.25988138556068
H           -3.79949151696853       -1.82648475622302       -0.86861156832309
H           -2.18910709190225       -2.50807354748595       -0.78526701658401
