29
 energy: -56.013623964321 gnorm: 0.000883846236 xtb: 6.6.1 (8d0f1dd)
N           -4.78716058809951        2.53900772867549       -0.00296327840682
C           -4.02790808197843        1.67698984654663        0.00125617615332
C           -3.13599087134494        0.58220567400404        0.00034294443841
C           -1.78998038799865        0.87001539675735       -0.00098480405426
C           -0.67315117793109        0.01911903604737       -0.00086298606776
C           -0.70884963411855       -1.43619390673044        0.00177758744668
C           -1.87919958906458       -2.20278857657166        0.00427760911554
N           -3.16060359831796       -1.91035689079172        0.00392126995335
C           -3.74615852872590       -0.72562371445951        0.00183565255521
N           -5.08585259592185       -0.78561823232977        0.00137318736897
C            0.50707200676079       -2.15062905135152        0.00208495601661
C            1.74767353877818       -1.53912710187569       -0.00016927782169
C            2.92255036728013       -2.32352464953910       -0.00077707790863
N            3.86384882503152       -2.97812253158457        0.00211689739378
C            1.81708457899781       -0.13487870632951       -0.00271001399425
C            2.84010694049856        0.80894665884627       -0.00504498169543
C            4.22243717001439        0.65631367176663       -0.00517163388996
N            5.37202448124218        0.61371193117871       -0.00851391537536
C            2.16353780149746        2.08240401381110       -0.00694898712800
N            2.77068381539251        3.27541525837192       -0.00927716402037
N            0.83532609622009        1.95571627997443       -0.00562283929718
C            0.58181921837906        0.63258383199626       -0.00299203456799
H           -1.52098068417235        1.92111827254470       -0.00237963951270
H           -1.72512616223359       -3.28010347269233        0.00681812782559
H           -5.51583702035934       -1.69560308477329        0.00252208029358
H           -5.65284815685416        0.04624672442406        0.00008885662649
H            0.46643118409522       -3.23074217580083        0.00403315237758
H            3.77347284102156        3.33288374653032       -0.01118251921831
H            2.21286843601149        4.11011673995465       -0.01120183750645
