28
 energy: -47.481416467359 gnorm: 0.000820662134 xtb: 6.6.1 (8d0f1dd)
N           -5.47359693795416       -0.96281567790339       -0.11970371459030
C           -4.42624429242813       -0.49491819538148       -0.06572506940538
C           -3.13735304165809        0.08860752797314       -0.00136640597873
C           -3.14350036848987        1.45500233120420        0.26881744707871
C           -2.07140698659200        2.32727278151139        0.22316041776762
C           -0.74270451892880        2.03045271469124       -0.00182924503859
C           -0.06067837339731        0.80493422083148       -0.05885297992967
C           -0.65544641793533       -0.51512878985486        0.00938744689397
C            0.17719330517010       -1.62064225742714        0.23071338668017
C            1.55997663857948       -1.53752536344552        0.28266360293554
C            2.16187348670860       -0.32312003018029        0.04374509077213
C            3.52342566853942        0.07001277637021       -0.03341639145325
C            4.61868913355534       -0.78308374715067        0.08514304095609
N            5.51288942265098       -1.50073990600798        0.18213669395878
C            3.54522191164493        1.45236140947579       -0.25143635427299
C            2.24016709718525        1.93616404673682       -0.30071047899813
C            1.35152877038549        0.86580562777688       -0.13031776882248
C           -2.04770104620674       -0.78733015875504       -0.22077361845949
N           -2.37118553998215       -2.03046886780586       -0.63939803055471
H           -4.11855270616367        1.88380768539845        0.46456708419900
H           -2.30887925401196        3.37343427367204        0.36514913387214
H           -0.09288626922433        2.89308220015913       -0.05668137857423
H           -0.26753570643467       -2.58665512531406        0.42119439773698
H            2.15105389658113       -2.41926321781809        0.48372154119754
H            4.43644314445549        2.04292199360124       -0.36637900028040
H            1.98967924148378        2.96821646349614       -0.46535994079401
H           -1.65943951542198       -2.68753138721731       -0.90337937145945
H           -3.33583784921087       -2.27600375313733       -0.78933252953733
