24
 energy: -43.806165186122 gnorm: 0.000668841356 xtb: 6.6.1 (8d0f1dd)
N           -5.36244855659389        0.47482119419742       -0.48120496442839
C           -4.29559498392783        0.07093304110272       -0.33546491163257
C           -2.99937660865363       -0.40719835022268       -0.16067994772897
C           -2.59419951922676       -1.75452900386876       -0.01349353352697
N           -1.28522397904213       -1.89587295863026        0.14105656933342
C           -0.76631110058510       -0.64933624511580        0.10096121599304
C           -1.81041854411243        0.34154435115500       -0.08902971757375
C           -1.48681500714208        1.69403336803684       -0.11565695359641
C           -0.17121395689456        2.06654332451753        0.04294418667942
C            0.87804603513450        1.13258589526020        0.16615923927793
C            2.18346476306137        1.62801317589639        0.37899558345766
N            3.34328440244812        1.05266042805520        0.22993009337775
C            3.56021671136191       -0.23561318780031       -0.03105185123364
N            4.74084341102027       -0.52882505779828       -0.58789235162846
N            2.81641690185466       -1.29293817111662        0.32944530820555
C            1.53068146840072       -1.29384215062327        0.47434497990904
C            0.57476252165198       -0.27984765096129        0.19685292938753
H           -3.23948631092382       -2.61500198270171       -0.01695894154827
H           -2.26025805966423        2.43888774121298       -0.23753738102302
H            0.08573469208310        3.11589094155154        0.05542664174801
H            2.26471655622986        2.68165845922656        0.63322597909722
H            4.99899565253148       -1.49202712269692       -0.71405655305464
H            5.38993993807189        0.21129149598962       -0.79073519041992
H            1.10985316641618       -2.24272108116588        0.79290288192814
