27
 energy: -51.761318628218 gnorm: 0.000661368668 xtb: 6.6.1 (8d0f1dd)
N            5.24418971265744        1.70731487995803        0.00087961626416
C            4.17462471620971        1.28962088975097        0.00235871547019
C            2.85328669116108        0.79630066284091        0.00066997329035
C            1.83230703474150        1.77650647578523        0.00124243585157
N            0.54116215489804        1.68240550405039        0.00084235170480
C           -0.22696144502985        0.56290072344674       -0.00038024073843
C            0.16004254197628       -0.84592760511820       -0.00150735706868
N           -0.73127400178296       -1.82063658858737       -0.00265558701131
C           -2.05633507277391       -1.60907489275059       -0.00280316812322
N           -2.81575465786549       -2.71271564424906       -0.00413732122563
C           -2.55705330507849       -0.30259177409597       -0.00166610307001
C           -3.80763878798214        0.33748040181390       -0.00127849546632
N           -3.70168957914691        1.66833975419323        0.00004730783752
C           -2.38982794006427        1.96146871246494        0.00057003077432
N           -1.88632003952068        3.19153913473842        0.00190261426953
C           -1.59469514736977        0.76361748666943       -0.00049388056432
C            1.51368604870831       -1.31603195139605       -0.00150341631399
C            1.64840511752707       -2.72567115437133       -0.00253043620555
N            1.80367770031572       -3.86245543588028       -0.00368260865139
C            2.69057638596101       -0.59053122822140       -0.00054928847306
H            2.18467931644434        2.80714166803557        0.00224590853477
H           -3.81751660305530       -2.65691958683754       -0.00407767250077
H           -2.35164209691544       -3.60515564620657       -0.00467956183127
H           -4.78218696756596       -0.11652301302786       -0.00189489523015
H           -0.87760965925048        3.26553632075083        0.00215953491884
H           -2.49428241066927        3.99164442859655        0.00257240007327
H            3.60531700227041       -1.17441666135301       -0.00071258861525
