29
 energy: -55.206225317507 gnorm: 0.000581582304 xtb: 6.6.1 (8d0f1dd)
N            2.70629923013597       -3.54070956400512       -0.24114929165771
C            2.27413109315755       -2.47642281604561       -0.18541137629042
C            1.85916653724900       -1.13211225733255       -0.09150626156133
C            2.88022276784261       -0.19497396032892        0.23305369923067
N            4.05888328370439       -0.67734207434320        0.67426601575570
N            2.85318732262311        1.11475856617780        0.08697128469413
C            1.82705406119364        1.90129043036817       -0.19000854207423
N            2.19946289753215        3.15343322331740       -0.52563997263879
C            0.43165959824630        1.62206106614107       -0.08910651598404
C           -0.36824336395217        2.77618842293888       -0.14900935183891
N           -0.93031092362293        3.77811132657867       -0.23214449843461
C           -0.20442252645512        0.36147158697879       -0.02382602885057
C            0.47533177086244       -0.91434242073772       -0.24357043440694
N           -0.18798725245327       -2.03863974239687       -0.54358157171571
C           -1.50176486384166       -2.10063680325481       -0.49509244264446
C           -2.24733799261138       -1.02770508949630       -0.05757343952011
C           -3.62188632535154       -0.77975408589350        0.21902913496270
N           -4.64343772509551       -1.64243295041897        0.14615942035462
N           -3.81365779736661        0.50071113495639        0.60329183237245
C           -2.63320575545164        1.10671161276774        0.56747241815009
C           -1.58862461528922        0.23571871859141        0.17046103727665
H            4.22382205947062       -1.66860398861751        0.71222853298196
H            4.81437377378410       -0.03097931411580        0.81837553163204
H            1.52019863555454        3.87899451681631       -0.67587550862021
H            3.18045139130648        3.36872038557270       -0.52044173543564
H           -1.93536979074527       -3.04882157678770       -0.78841090215769
H           -4.49935298846075       -2.59448244624711       -0.13496441963174
H           -5.56445942859398       -1.31360689443395        0.37557951263458
H           -2.56410267437088        2.13824606775009        0.85417622851647
