27
 energy: -46.963794631149 gnorm: 0.000457595461 xtb: 6.6.1 (8d0f1dd)
N           -0.27018521367468       -4.23532263818430        0.60124280016968
C           -0.35420003823623       -3.10055462652848        0.43666420651943
C           -0.50326425240204       -1.71399301118375        0.24986427447851
C           -1.80320512999146       -1.20076670357074        0.23068336765786
C           -1.98574973950685        0.14392356462394        0.01224907418877
C           -3.15336278821208        0.95879671633028       -0.07121280693157
N           -4.43263179323652        0.51891828936997       -0.03305930965600
C           -2.73369850813526        2.29112101281678       -0.23738601558238
C           -1.35191628722735        2.33532557948970       -0.24975968119418
C           -0.84863729086358        1.02329041608579       -0.10180484717043
C            0.46093864353135        0.55434357956707       -0.00859372874670
N            1.43298392767658        1.45851211829006        0.11067686025154
C            2.73334877226785        1.30113102159907        0.08952370167887
N            3.45480365645520        2.33459249536510        0.57026272487247
N            3.48895491719440        0.31705245657117       -0.44370261149485
C            3.07433177779354       -0.91412917686826       -0.57786281388764
C            1.86805397079668       -1.51639818579033       -0.21925570693459
C            0.64291312751618       -0.89853326502186        0.05462021439578
H           -2.63379786861959       -1.88121121070970        0.36604570885733
H           -4.62024455084619       -0.43142042712026        0.23287111016860
H           -5.17820047854268        1.18685898979287        0.05289025583835
H           -3.39515037583952        3.13256855190644       -0.33622291714365
H           -0.74541140018554        3.21426458805605       -0.35833393778800
H            2.97746032619505        3.16668186167174        0.86615478350970
H            4.45002956755502        2.33111939073063        0.43892828522094
H            3.82875660079503       -1.56954739308931       -1.00553817265122
H            1.84707712734209       -2.59797455810247       -0.28496937622738
