25
 energy: -42.708796467858 gnorm: 0.000515191802 xtb: 6.6.1 (8d0f1dd)
N           -0.81795309259132       -2.91241814662266       -0.35355228767188
C           -0.05342591260806       -1.73474534998536       -0.25234580745845
C            1.33962479007525       -1.83870725533118       -0.31228181159448
C            2.12848206728924       -0.72981402135733       -0.10171113901464
C            3.50995268288397       -0.46829287426106       -0.04872550815319
C            3.61560495432241        0.89264258922760        0.17339107832738
N            2.42280479479749        1.52281285019066        0.25997796247212
C            1.50145023467643        0.57072362776580        0.10866962275040
C            0.10455993017184        0.71261266265334        0.06552082659299
C           -0.42789236593229        2.00766095626402        0.22091692122029
N           -1.58765309981381        2.47767927600528       -0.16891674388048
C           -2.60960514552550        1.74170721088012       -0.54322464363313
N           -2.91293618421604        0.52835743896624       -0.16105975997753
C           -2.09155441926087       -0.41051127112624        0.26849192020949
N           -2.65610630692773       -1.39476303293941        0.98357951917602
C           -0.68302860577056       -0.49647641172641       -0.05251498396768
H           -0.26458749996263       -3.69608984910738       -0.67410399055601
H           -1.65767063751323       -2.81297976162804       -0.90846174326386
H            1.78530590567907       -2.80894157908097       -0.49409342834475
H            4.31104553835546       -1.17298259119249       -0.15943085996375
H            4.51999655685222        1.46620558699828        0.27987287104771
H            0.27134940587998        2.75512873586811        0.58005744065277
H           -3.37506286373496        2.25340671822696       -1.11749485639794
H           -3.63638375697590       -1.33493216399897        1.20010770815394
H           -2.11690358115046       -2.20469230248878        1.24158403257465
