28
 energy: -51.474340637286 gnorm: 0.000794893111 xtb: 6.6.1 (8d0f1dd)
N            5.40300947407754       -0.87049495172199       -0.20817907047059
C            4.29521147634058       -0.57198350677218       -0.13264897528224
C            2.94440782348084       -0.18109701342246       -0.04364767783531
C            2.01940613201331       -1.20971260107301        0.08186077007383
C            0.63201984310050       -1.19551617740427        0.13539697949784
C            0.11962826674763       -2.50229118030540        0.31436949379628
N           -0.18492541839684       -3.59429041654258        0.49820675745498
C           -0.28685308166538       -0.10511501678973        0.06118163847200
C            0.11597377291045        1.29252272001985        0.13049532243722
C            1.42189665686538        1.80011996679246        0.07255558829490
C            2.67674804502354        1.21831688054717       -0.05160375221347
N            3.73967153028781        2.04747730718712       -0.16242839928407
N           -0.77827659282588        2.29313165169154        0.24689276340319
C           -2.07351637649614        2.06641966057395        0.22197346331345
C           -2.58176832384385        0.80005849039517        0.03444744039052
C           -3.87334194910840        0.22947573560741       -0.10853624844830
N           -5.05949363699638        0.85568397166586       -0.11898832635287
N           -3.79070021377540       -1.10917167722419       -0.28598216947445
C           -2.51018455752174       -1.44201574720626       -0.24323568313033
C           -1.66431946814195       -0.31699230045708       -0.04507901646351
H            2.45931487040831       -2.20179466341533        0.13348333454431
H            1.42462060159933        2.88391932666604        0.10418329998339
H            3.60854077818015        3.04273036967131       -0.14125888008361
H            4.67292926313672        1.67761342115972       -0.22538072502516
H           -2.70271215927224        2.94163401532723        0.33801510296496
H           -5.89090591307528        0.29315438535434       -0.16966032010892
H           -5.12892458406320        1.83001622559433        0.11189914997177
H           -2.23151873958933       -2.46862374621903       -0.37749378222575
