23
 energy: -39.251876219410 gnorm: 0.000986373834 xtb: 6.6.1 (8d0f1dd)
N           -0.22966464015199        3.14864629354105        0.14444861174846
C            0.19823297570075        1.84064076034532        0.09975646119781
N            1.48561636890334        1.68370563957752       -0.05759857472950
C            1.97775623053001        0.44080029407233       -0.15409885920977
C            3.26833441133261       -0.04702311675169       -0.20389428119474
C            3.12940386550655       -1.45583018238253       -0.16310739133397
N            1.87980906134851       -1.87377475432469       -0.07182299566932
C            1.12274833181409       -0.74103810463322       -0.05166869722023
C           -0.23180157278228       -0.59594184866520        0.10478148428376
C           -1.03702207227297       -1.73538814567296        0.46331072472598
N           -2.26955415150219       -1.96416696328610        0.20807601982987
C           -3.19688018209929       -1.15100218212158       -0.29259305883890
C           -3.21829167479339        0.22165241999374       -0.21682263387968
C           -2.12279809242851        1.06212548283703        0.03906113691780
C           -0.77424395505843        0.75412590736753        0.09583431492933
H           -0.97649553115417        3.38388741707292        0.77693133343444
H            0.54360663244724        3.79728101070736        0.15672761316352
H            4.18420609415853        0.50655845068932       -0.25567142136120
H            3.93209109345131       -2.17240026217176       -0.19781828465312
H           -0.49991475329277       -2.53670595275627        0.96213413417964
H           -4.06431076021515       -1.67364329575760       -0.67907426957538
H           -4.16050622131526        0.71382906814485       -0.42001114345741
H           -2.37205549152665        2.11507766137461        0.05338755661260
