30
 energy: -54.918644708164 gnorm: 0.000526458605 xtb: 6.6.1 (8d0f1dd)
N            3.81456266768105       -1.50528217908556       -1.22710999847613
C            3.13854652295929       -0.72670029517707       -0.71917994958133
C            2.36033999177939        0.33691642403114       -0.21198869535374
C            3.02983511990392        1.56813731844503       -0.25034211264656
N            2.69939292059429        2.73954229785711        0.22357447099445
C            1.49473505374252        3.08111796538932        0.66953875344409
C            0.28147129480216        2.45949696848216        0.51891459146123
C           -0.00757338174968        1.12083179819536        0.13481396768019
C            0.99230448253673        0.07016710735698        0.09647850744051
C            0.58046115443459       -1.26286089280766        0.26145780847240
C            1.50185841333274       -2.27878173355039        0.57877746765074
N            2.11910669747186       -3.17627636205712        0.94862719276973
C           -0.78734574445409       -1.66501432636099        0.23041117756655
N           -1.12175700453938       -2.96749509338411        0.40171547250107
C           -1.71864007237011       -0.67502185492397       -0.04800208418573
C           -3.11926985242117       -0.66225458017832       -0.26244779368297
N           -3.96256438056315       -1.72654078298000       -0.32486725098725
N           -3.58824885849797        0.58988338130105       -0.39600012312229
C           -2.54703290820226        1.42267460757714       -0.27497638201826
N           -2.72975986605129        2.75681603022156       -0.38047644670322
C           -1.32232315699331        0.71327850304210       -0.05268713574057
H            4.02891935090051        1.54291499805624       -0.67916580764804
H            1.49216585918244        4.05849715303523        1.14397063954212
H           -0.58050907471728        3.02328550024976        0.85173666164807
H           -2.06532329649815       -3.18767875135677        0.67044065138969
H           -0.39670050754237       -3.59813324880347        0.70915448269974
H           -3.59904379458876       -2.58682439134801       -0.70308024111006
H           -4.89930185435031       -1.48900774683686       -0.61479709763558
H           -3.64818868564699        3.03950391884126       -0.68443440379171
H           -1.95394314013502        3.33140457566868       -0.66569380357723
