28
 energy: -51.493835628281 gnorm: 0.000496156788 xtb: 6.6.1 (8d0f1dd)
N           -5.55619976146781       -0.89521094503575       -0.02115924080633
C           -4.44035191770017       -0.62013766593197       -0.01683917061958
C           -3.08044031664231       -0.24502951708000       -0.01216235466731
C           -2.15415883552906       -1.27068271585926       -0.01021256705552
C           -0.75255243827196       -1.25497459855862        0.00012680784294
C           -0.11411098337048       -2.50571380299853        0.00567909778734
C            1.25730989426296       -2.66306379539686        0.01614282553821
C            2.05927881187074       -1.53385493200557        0.02061589582219
N            3.39952450559674       -1.46944371058774        0.03334897673481
C            3.70777646623796       -0.17027434796809        0.03480517196793
N            4.97856810666514        0.26133952848907        0.02186213269604
C            2.54461453014743        0.67347243862918        0.02345907958962
C            2.61461133373082        2.05945489006743        0.03361713270995
N            2.75069863356242        3.20419362063485        0.04846873686554
C            1.45323914835103       -0.20740674429339        0.01361690109415
C            0.05410193740893       -0.03855373082771        0.00159659972130
C           -0.44304674897168        1.26911476632991       -0.01558991095423
N           -1.65028331045368        1.78748572661854       -0.01485666590826
C           -2.81807048945502        1.16867099300599       -0.00517737223174
N           -3.87056576017399        2.00202786089891        0.00834775023190
H           -2.59373136680943       -2.26360177750662       -0.01440752107075
H           -0.73651718914520       -3.38934674997836        0.00213798896355
H            1.70543734902206       -3.64386149774209        0.02100046631082
H            5.71625723422982       -0.41490368607919        0.10387836297845
H            5.17966693891156        1.24119219953232        0.11398335603744
H            0.31563558571277        2.04799884903452       -0.02891221775552
H           -4.81735555143855        1.66124997142266        0.01264922717362
H           -3.68267070207404        2.99056774735228        0.01048984532090
