28
 energy: -47.485148743842 gnorm: 0.000603895538 xtb: 6.6.1 (8d0f1dd)
N           -5.65857852896957        0.95507962860808       -0.01495054754780
C           -4.57533798522082        0.57210933302593       -0.00978994248228
C           -3.25000983579307        0.11947275156536       -0.00761215952894
C           -2.83864030593865       -1.21752477758519        0.00137950395101
C           -1.43786730323432       -1.22261108072206        0.00221388265519
C           -0.52397321670907       -2.25884132812098        0.00963573620148
C            0.83447754285352       -1.96655524298905        0.00752110391121
C            1.71633251661641       -3.06740909192756        0.01489734267156
N            2.39377751641224       -3.99541032636767        0.02364949155311
C            1.34714646443963       -0.63472484193256       -0.00124892090014
C            2.73797468837530       -0.50888050276731       -0.00536834463902
C            3.56572200973514        0.60557065419663       -0.01098019673537
C            3.24247323824963        1.94177208109503       -0.01031196240098
C            1.95888408059472        2.51477614314890       -0.00715382761241
N            1.89510940120104        3.87312502112970       -0.03262651833009
C            0.74242360959724        1.82766462404633       -0.00696077500306
C            0.40304368911813        0.47553262874702       -0.00611497422750
C           -0.97579261333989        0.15271764191183       -0.00619811364809
C           -2.11707341859282        0.95796816374235       -0.01246653983861
H           -3.48118485493626       -2.07772835278935        0.00683602351387
H           -0.84874034196175       -3.28992112858389        0.01658739457511
H            3.26816936680523       -1.45464100466651       -0.00360992320611
H            4.62566922338030        0.38411169751009       -0.01375350645434
H            4.06777186480505        2.64297836130023       -0.01344658586107
H            1.01167785195515        4.34198504156733        0.05520225084167
H            2.73144962390801        4.42092031353382        0.05717225068537
H           -0.11678502443167        2.48753185270939       -0.00814179969421
H           -2.17531460741885        2.03118337961411       -0.02068003944960
