29
 energy: -51.204278101398 gnorm: 0.000793745798 xtb: 6.6.1 (8d0f1dd)
N            5.23073968922242       -0.32132369337607       -0.26256609098905
C            4.13531162110017       -0.65468916632046       -0.15393401205460
C            2.81833586118828       -1.09222539885748       -0.01300525894678
C            2.40697096060927       -2.42507912504625        0.15098913918116
C            1.02179783583531       -2.48121538216693        0.25877575519316
C            0.51368070703590       -1.17970476122505        0.18201096602877
C            1.65425136307858       -0.29489208909859       -0.00460838642529
C            1.43195481668537        1.06757241835840       -0.15673223767618
C            2.47850801088833        1.98685120754643       -0.39590258458292
N            3.27610244277097        2.78811729984376       -0.58715999602471
C            0.13176986545703        1.56739496444683       -0.05806259843708
C           -0.98465055192102        0.75025004522488        0.13605997596219
C           -2.26386875202273        1.39762543657191        0.34162247099282
N           -2.24129268884739        2.68769923569854        0.75350720150744
C           -3.50902964342682        0.86569592044267        0.04478559999722
C           -3.81648510423039       -0.45843011991249       -0.29541548883439
N           -5.01123653863036       -0.73815724126685       -0.85884388806000
N           -3.10884750524989       -1.53807572490295        0.03547448371467
C           -1.85621405557248       -1.60722543027013        0.35960354012649
C           -0.80214414735907       -0.67219058868822        0.21202531305275
H            3.07363015120770       -3.26821920860164        0.18607323671625
H            0.45741928549112       -3.38739736843476        0.37753210119319
H            0.00689728403014        2.63152977065600       -0.19703161074062
H           -1.39455293262399        3.10338629553290        1.09580151789412
H           -3.10663576066582        3.16968658579495        0.91962989673888
H           -4.34327236120624        1.55758639542244        0.06809983573277
H           -5.66068565940332       -0.01516048668022       -1.10664687854401
H           -5.24405761865853       -1.70107456508463       -1.02413598489817
H           -1.56576365518357       -2.59558409390851        0.70051272988506
