28
 energy: -51.478549929251 gnorm: 0.000683224703 xtb: 6.6.1 (8d0f1dd)
N           -4.05815698023612        3.35832206703393        0.11659768313988
C           -3.51941271236159        2.34600430039825        0.09176612650540
C           -2.87316995558192        1.08698544222900        0.06244579797806
C           -3.72209211183948       -0.04327454240882        0.14617093942906
C           -3.39063749195081       -1.35720737975803        0.04670891812682
C           -2.12447121019792       -1.99593948159500       -0.10695018589323
N           -2.21580856388956       -3.31522075539986       -0.36968666691168
C           -0.84241923334840       -1.40809650398836        0.02159108917223
C            0.28371463041977       -2.25789743542196        0.16687320949408
N            1.54414539105187       -1.90557957029506        0.20272315654976
C            1.81413660938159       -0.61126619043767        0.07131646046566
C            3.01858230790965        0.09995731138575        0.03644190123450
C            4.33366739241221       -0.34457347560714        0.08362538528023
N            5.44313685224067       -0.64913768365413        0.12038902690304
C            2.62149794284099        1.47333558331613       -0.05469729980357
N            3.45723951702867        2.52032132972980       -0.13910500275711
N            1.29026028671827        1.63320900710641       -0.07464859656221
C            0.76730570350721        0.39646216313088       -0.01461195758000
C           -0.58257638502898        0.02556652355645       -0.01105646700335
C           -1.49952341326092        1.08827849028086       -0.04347599559359
H           -4.77556448200368        0.18241533844996        0.26336931013822
H           -4.22335137616244       -2.05150292756550        0.07436446803502
H           -1.40104469767569       -3.87530771916540       -0.54392609681397
H           -3.11717897598378       -3.75736445978634       -0.41933848321288
H            0.14384690792219       -3.32069976152279        0.32317895911675
H            4.44669652619506        2.38082369525497       -0.03780090092595
H            3.07432813477102        3.44829666240975       -0.12111203521725
H           -1.01376680347747        2.05578640752354       -0.11115407479421
