29
 energy: -51.192461170364 gnorm: 0.000692137714 xtb: 6.6.1 (8d0f1dd)
N           -2.12060431691717        3.17705193946499       -0.98098472666846
C           -1.33959380270588        2.42782967427254       -0.59604668840063
C           -0.27397905250058        1.56496862872748       -0.25943313020483
C            0.99464661896121        2.14684739257832       -0.20636182498498
C            2.07711655884758        1.33151399137429        0.02598471306726
C            3.46292861285771        1.55005377419617        0.19929430955710
N            4.11868173517488        0.41428822434332        0.37441535580680
C            3.21531092345189       -0.59421126393783        0.30562324531547
N            3.64173904644394       -1.87458753848832        0.46109671846251
C            1.90482944637523       -0.10204128357917        0.07138147815576
C            0.65853089180993       -0.71188899256990       -0.14018977555538
C            0.61288948617107       -2.08236409005931       -0.45709032790490
C           -0.46383567966946       -2.91496176194797       -0.68165681972156
C           -1.81202580508264       -2.68965547554517       -0.48350418455740
C           -2.43725394445385       -1.52505181577181       -0.01832517531142
N           -3.76053402577150       -1.61648594386757        0.25489954597383
C           -1.82286186606308       -0.25599702897709        0.14036192646403
C           -2.67542409793011        0.71157216986165        0.71824353355848
N           -3.40814998565660        1.37278281709301        1.31067564194559
C           -0.49236045342384        0.16809046293852       -0.11503458147319
H            1.09947727131120        3.21427054942089       -0.33392863075131
H            3.97915348440828        2.49192892839085        0.21806768125803
H            4.60260102824541       -1.94894882526389        0.76050341140480
H            3.00161003796030       -2.54496840180098        0.85635204634864
H            1.58171719163582       -2.52380655132985       -0.64509052933209
H           -0.21217155940086       -3.91085757517697       -1.02621084704148
H           -2.47406669894423       -3.52743053521234       -0.66285893016983
H           -4.27933896995550       -0.81356610068819        0.56743928318494
H           -4.23986248087830       -2.49068321914475        0.13817160177322
