24
 energy: -43.792870843960 gnorm: 0.000663268132 xtb: 6.6.1 (8d0f1dd)
N           -1.96156741146581       -3.51961117569444        0.00250877834765
C           -2.10912324012141       -2.37717132901022       -0.00035220780594
C           -2.26615181857772       -0.99485526956855        0.00176539003868
C           -3.48746290164791       -0.29163580243748        0.00339825500002
N           -3.34028776979520        1.02992630521871        0.00381068726841
C           -2.02385689755764        1.26064311529278        0.00265359901422
N           -1.44190158044805        2.45146966580653        0.00250289653222
C           -0.13531443967162        2.47652436171909        0.00128457537054
C            0.72766409105170        1.34961144098523        0.00014021879630
C            2.10659303964596        1.62016344372293       -0.00100382658458
N            3.17568312988460        0.87094671181620       -0.00227319733383
C            3.24360528667163       -0.46111060034334       -0.00279183744153
N            4.50496764518789       -0.92200956555001       -0.00417537576141
C            2.19214832323826       -1.41656076468280       -0.00203415479205
C            0.84765551038506       -1.18946607774737       -0.00072377747978
C            0.12739521500263        0.03130410270521        0.00026664193101
C           -1.26519882319458        0.00574383512390        0.00154075146505
H           -4.46944496941211       -0.73019507620944        0.00387759667613
H            0.30639848001952        3.46539114168173        0.00116445572642
H            2.36099731529381        2.67891116364284       -0.00085877615039
H            5.25414374156002       -0.25019235994734       -0.00476312173838
H            4.71246623138477       -1.90489769040971       -0.00480297818670
H            2.51246801893566       -2.45091940584480       -0.00260219218360
H            0.21979226713055       -2.07245117426962       -0.00036730710842
