31
 energy: -54.644067329891 gnorm: 0.000999699097 xtb: 6.6.1 (8d0f1dd)
N            5.55314935704946       -0.21546990626895       -1.21217254194947
C            4.48226094660115       -0.36040444974106       -0.82457550302680
C            3.16704040120380       -0.53369464098407       -0.33769374993220
C            2.76434774902002       -1.85068720510479       -0.08769894268517
C            1.57095932234205       -2.27010542962732        0.43684968252342
C            0.38734471746487       -1.54320146616416        0.67069655407041
N           -0.57305224277215       -2.20655974345830        1.33647636654610
C            0.09263021258606       -0.19173919694842        0.28897358835890
C            1.11835681405113        0.84940890200264        0.22641350391728
C            2.45138219977074        0.64023017115028       -0.08838148503475
C            0.70543996467622        2.22167124703348        0.36597245513734
N            1.65767219615683        3.20767002930500        0.53015809241414
C           -0.61808074908641        2.58670831493644        0.22450473093246
C           -1.57700308931418        1.61190457548629       -0.01814039420903
N           -2.87737815995944        1.79488066102098       -0.25915100108054
C           -3.41078780609343        0.56760691904750       -0.38161931576300
N           -4.73058275050317        0.39588675617306       -0.61377608998318
C           -2.46045431223574       -0.46692063338137       -0.17536662935555
C           -2.74934258767166       -1.81177326448843       -0.32976493990553
N           -3.02863164970038       -2.92573752171846       -0.45318443160378
C           -1.22351667441767        0.20226088042971        0.06213165429721
H            3.50882068718928       -2.61402883679482       -0.27894226623969
H            1.49829222640166       -3.32519734542248        0.67179691270158
H           -1.47372369771437       -1.78305118569152        1.48597845596826
H           -0.50024738416781       -3.19880504446948        1.48384804805651
H            3.03057351056600        1.54083748583676       -0.25761510299830
H            1.28631218422476        4.13283490900142        0.67424331830159
H            2.46661546814099        2.99646180189766        1.08986287625447
H           -0.91295137255393        3.62363087179810        0.27600487694775
H           -5.05581469444587       -0.51108558130801       -0.90192455321805
H           -5.24880013340905        1.20437260485234       -0.91101622834286
