31
 energy: -53.850765542802 gnorm: 0.000921420649 xtb: 6.6.1 (8d0f1dd)
N           -5.05698699940027       -2.26830210773638        0.52518056158285
C           -4.06057156224945       -1.71048047068451        0.37670745015114
C           -2.88417399982006       -0.97986316265282        0.21369992822494
C           -1.58325798905553       -1.47723717430071        0.13230965515967
C           -0.70814304787638       -0.38618146132150        0.01177584055098
C           -1.50482510844538        0.81670931285177       -0.00436463946069
C           -0.84332229933042        2.03288778545799       -0.24231786613000
N           -1.52272076400661        3.20403472681024       -0.41719105052605
N            0.47648038336162        2.11414468640710       -0.25939453985942
C            1.25498554080109        1.02654460324643       -0.11750593158791
C            2.60182788891948        1.31635241902944        0.05276356885850
C            3.71077610089768        0.46824630166020        0.21364137373425
N            4.91158606915741        1.08594504281803        0.43129339368491
C            3.71956672454995       -0.91398032707639        0.08332869605478
C            2.62459855023403       -1.74478864910633       -0.21230378417450
N            2.88940251942938       -3.06531421027836       -0.43033264224380
N            1.33379096153686       -1.48157462921341       -0.21347382319507
C            0.68814331773428       -0.33028559071589       -0.10035025523987
C           -2.84589569347235        0.44537088983861        0.13808110160359
N           -3.95114921201454        1.26591964148621        0.15608995948243
H           -1.29837054532069       -2.51085150700113        0.16876396365351
H           -2.45628839108740        3.14400801590391       -0.78902823537433
H           -0.95736194819368        3.97271625251808       -0.74252256834343
H            2.81080336478420        2.37808857700132        0.10794586349484
H            4.91315555585786        2.05614880998920        0.69214578831619
H            5.69707503147962        0.53244177782574        0.72489153269676
H            4.67732611516620       -1.40888638242688        0.18804776187943
H            3.82078653123104       -3.37096804763466       -0.64706445581702
H            2.11452952800273       -3.63287059645610       -0.72665745731093
H           -3.82365124872194        2.16586624175173        0.59512986160541
H           -4.80667658074951        0.80119591520880        0.42716285062873
