29
 energy: -50.403431088917 gnorm: 0.000475325060 xtb: 6.6.1 (8d0f1dd)
N            2.66543592821883        2.75091250922562       -0.20314533631909
C            2.35232719882995        1.63977371361680       -0.15474579255841
C            2.02264243857680        0.29701817930757       -0.07840996213871
C            2.96700069106157       -0.74542282775126       -0.17566816152647
N            4.31714566567411       -0.57118559178222       -0.22134338216213
C            2.29825085653579       -1.98538274869703       -0.13292369734448
C            0.93714233091918       -1.74299277415478       -0.04428289180598
C           -0.15989968930978       -2.60298549454544        0.03825051624788
C           -1.44382502836025       -2.11047150806226        0.10283011974065
N           -2.50056758623394       -3.00426125486769        0.20513289387049
C           -1.69123526857308       -0.69557391757847        0.06408516212937
C           -3.01063934813849       -0.23017193144963        0.08704578747090
N           -3.50789037819780        0.88357477448298       -0.41774760418125
C           -2.81972183836631        1.94563197976921       -0.74614006893889
N           -1.70332139425329        2.36196837521680       -0.20040673871218
C           -0.79438137952289        1.61403598918775        0.38076112096784
N           -0.01296726148459        2.20650925894108        1.28772618430583
C           -0.55167090958697        0.20754282198742        0.07044525869597
C            0.72489079022766       -0.30497042453596        0.00080909077571
H            4.65708142411245        0.35074304553451       -0.44155976448475
H            4.87969300105725       -1.34376648245847       -0.53438583244698
H            2.77564059594366       -2.94671864098104       -0.16887155571140
H            0.00185036952275       -3.67233829485968        0.03516570328565
H           -2.24444266084413       -3.96083549174538        0.01332636330435
H           -3.37225168878144       -2.73847444193087       -0.22206055469027
H           -3.78616684105753       -0.90762431362078        0.43060417788803
H           -3.30616966931424        2.64166362301106       -1.42092031447457
H            0.82247513561886        1.74977724369189        1.61357880500300
H           -0.08489878697432        3.20490075014824        1.40073217961015
