34
 energy: -62.611977617909 gnorm: 0.000601530442 xtb: 6.6.1 (8d0f1dd)
N           -5.37202311447597       -0.06993064471843       -0.64007705477571
C           -4.24280757368643        0.02979381553551       -0.43451107379399
C           -2.86522697236375        0.15652799068466       -0.18920977208165
C           -2.32616728127722        1.46109424653652       -0.29649681116868
N           -3.18711456812972        2.45307473958807       -0.63540702259140
C           -1.00946222365954        1.84648768799157       -0.04720193503652
C            0.17483633563447        1.12534792501461        0.09477553274513
C            1.36197338461698        1.89165814282485        0.25669003758366
C            1.28357333338530        3.27985132778681        0.44707653144427
N            1.28678011358902        4.42069776902329        0.60425227344658
C            2.65554979122846        1.33484133095755        0.20004963952046
N            3.75177343432468        2.09458110003820        0.39279339099427
C            2.73818017983940       -0.02721959942284       -0.10879027252252
C            3.81192870992743       -0.86705871003161       -0.41582894080634
N            3.40713422106368       -2.09800690786102       -0.72626472336364
C            2.07127597123399       -2.13281567120510       -0.59173411935620
N            1.42801027373119       -3.23892119946750       -1.01627657641421
C            1.55414328256072       -0.84717672009790       -0.18133455622782
C            0.28367267018646       -0.32349122300191        0.05789325148597
C           -0.80816607097794       -1.18133177330229        0.39219317660878
C           -0.43863996966778       -2.39857756872484        0.98114244509006
N           -0.18230129016634       -3.39698654428384        1.50003179256803
C           -2.20267060872104       -1.00706416451007        0.26177002445418
N           -2.98986063337238       -2.07705195900184        0.53873624280485
H           -2.87217994574122        3.40580777523546       -0.65974464027763
H           -4.16463546642004        2.26013698253957       -0.76825710855270
H           -0.87175387258933        2.92263320296423       -0.05629073495388
H            4.66460115251258        1.69614896970657        0.27219515925264
H            3.66106606600248        3.08628959248395        0.53344625194717
H            4.85987302649177       -0.62669967890980       -0.44263820902831
H            2.05061975869648       -3.99700065878065       -1.25168939468121
H            0.53202574576219       -3.49649193124867       -0.63806897557303
H           -3.99077798096530       -1.98493666643113        0.51234913823519
H           -2.59007138377044       -2.91949798351676        0.91399317612459
