24
 energy: -38.982559223626 gnorm: 0.000706668572 xtb: 6.6.1 (8d0f1dd)
N           -3.16800715456322       -2.12846491476530        0.47096879753566
C           -2.45245168446690       -1.01473950803794        0.15868621297324
C           -3.16975517124334        0.15891310162547       -0.11668203369442
C           -2.63260424668247        1.39406459224985       -0.44215872781822
N           -1.42551286842607        1.86300990366391       -0.27632987236706
C           -0.29153462543078        1.25873700895073        0.02319217929382
N            0.68845939646956        2.09876678891380        0.35187048483176
C            1.94162140786625        1.68881439935388        0.41753359335155
C            2.32606809901046        0.40066258929652        0.09286872624217
C            3.56594371251087       -0.26350162274502        0.01496990271886
C            3.31585390893379       -1.59749345554546       -0.27101636559892
C            1.93650214003653       -1.80836629398448       -0.36101462594990
C            1.29079718594329       -0.58302275465934       -0.14910744387164
C           -0.06080305371087       -0.20438185194310       -0.06862827434916
C           -1.06090572469833       -1.15951133998784        0.05759790264852
H           -4.17109174851557       -2.10731921649361        0.44639986897931
H           -2.71161170556938       -3.01991672075546        0.54153368610446
H           -4.24916456408000        0.07454965018232       -0.12287337905606
H           -3.32725399880170        2.14215167342439       -0.81653120959954
H            2.66132740689786        2.44393032028951        0.71252335758285
H            4.52941676066087        0.19051814240966        0.15599430305528
H            4.06424210199060       -2.35948356205763       -0.39935618986015
H            1.46772125771176       -2.75082663142879       -0.58205628920764
H           -0.70445915984320       -2.18037532175599        0.14446012115527
