26
 energy: -48.017326132986 gnorm: 0.000964237075 xtb: 6.6.1 (8d0f1dd)
N           -4.85084125587841        2.35985389893614        0.00579580521336
C           -4.04346947824684        1.54573288360143        0.00440468591583
C           -3.05293414469308        0.53443451880434       -0.00308686537740
C           -3.49378891639233       -0.78888751465531       -0.23696551354974
N           -2.85034638810317       -1.87925986701162        0.05149351551100
C           -1.58747462497803       -2.08501733383504        0.32564471541132
C           -0.47252277510292       -1.28137444257977        0.04374470625929
C            0.80906413577953       -1.90006324747445       -0.07617531754085
N            0.93774337548647       -3.25873029164386       -0.11907157057472
N            1.95456476073277       -1.23395318321336       -0.10851705747971
C            1.91915075558694        0.07978777186029       -0.04953568129590
C            2.99147371471649        0.99723109035582       -0.04583591615668
C            4.34919676138646        0.68332763759620       -0.09410657414007
N            5.47143001367880        0.43718792150117       -0.13448236822370
C            2.43157668834801        2.29162340012015       -0.00152319104581
C            1.04867069876566        2.21111180561946        0.04091963955602
C            0.67770275616088        0.85399646631431        0.01263183694381
C           -0.54352016312813        0.17902781371191        0.03316319319372
C           -1.73170862532441        0.93090883648347        0.14204108516101
H           -4.50046826178836       -0.93538295805276       -0.61170719821303
H           -1.39910382403237       -3.07009332137771        0.74259454196233
H            0.19482174583010       -3.82575141829959       -0.48748440437599
H            1.87838034303472       -3.57350473661545       -0.29760032709835
H            3.00645694776266        3.20000580537557        0.00727631500207
H            0.38786201893764        3.05748139694836        0.07664267646860
H           -1.58026275573994        1.99694692133075        0.25957425637323
