26
 energy: -48.033447540045 gnorm: 0.000614665080 xtb: 6.6.1 (8d0f1dd)
N           -5.80527898098975       -0.72425322159698       -0.79169144824747
C           -4.70685021983053       -0.45471551365848       -0.59386719542644
C           -3.36545322160423       -0.12526303774735       -0.35615219074792
C           -2.87103426364924        1.16694294479169       -0.14099633662013
C           -1.48034290812388        1.07085146406605        0.04035807399581
C           -0.52789322705693        2.02777756060232        0.35447740226431
C            0.81488899047576        1.67054335773772        0.44919713571415
C            1.80334636237402        2.64857717958286        0.67548672368058
N            2.60674793010693        3.44476622991587        0.86997803335721
C            1.22228232751911        0.33337839037393        0.20957853846617
N            2.44915691743583        0.09310559110100       -0.16059232265491
C            3.11498130141763       -1.03493851612001       -0.34374324109986
N            4.19950818296136       -0.93543603627053       -1.13748609287755
C            2.85011707729613       -2.24542817466088        0.34394051194390
C            1.61655561310088       -2.53053490160052        0.88788301195308
N            0.46274715646076       -1.94414044802854        0.63819584704694
C            0.18646803376866       -0.74002605103785        0.21942096323933
C           -1.12951731778271       -0.33088253644409       -0.05167492919571
C           -2.30167903049832       -1.04902896846009       -0.29033969743858
H           -3.45576591688768        2.06737529396018       -0.10919798067838
H           -0.80801571909747        3.06433851412367        0.48114033119833
H            4.44757420177732       -0.02934678466623       -1.49633738813774
H            4.85640910716939       -1.69099984902920       -1.20979577464386
H            3.64898090460284       -2.96774785472402        0.43595569304511
H            1.51611422490157       -3.41765032970335        1.50502297198787
H           -2.38428077734763       -2.11191549210639       -0.41643333712298
