29
 energy: -50.403286237786 gnorm: 0.000798565787 xtb: 6.6.1 (8d0f1dd)
N           -2.73001817117329       -3.64850733610761        0.13785315227108
C           -2.06777337300181       -2.71195998852826        0.08985701080433
C           -1.20077155867058       -1.60403549403884        0.01944878840558
C            0.17325738767446       -1.82240174820597       -0.04012079626865
C            1.11747327248832       -0.78743699556481       -0.06973941324777
C            2.50800672377248       -1.15885466421220       -0.13163239047572
N            2.81848848088555       -2.37887160508773       -0.61851659142071
C            3.56673435688792       -0.42233497846053        0.41393027859841
C            3.54207275888349        0.91034225570577        0.77709780639257
N            2.72101403799760        1.83475093327038        0.34659789042345
C            1.55300139820519        1.68353466184008       -0.24130831397927
N            1.13901663916195        2.72930363369471       -0.97438111939241
C            0.65011525847913        0.57264842176521       -0.06960354240078
C           -0.72820852645323        0.81335726876750       -0.00865903103467
C           -1.53478426283135        1.95661387630337        0.06875540406657
C           -2.85281185817357        1.48681871113227        0.14006824732824
N           -3.99122353954509        2.24128661942516        0.16440348156609
N           -2.93802216332489        0.13931082503140        0.09704847828322
C           -1.68219084389633       -0.29459846263721        0.03069821942879
H            0.50136445514115       -2.85031962142648        0.02270431085571
H            3.76688350425387       -2.70843333001425       -0.57789023982306
H            2.11511323827063       -2.98085953566342       -1.00788464060654
H            4.49281218583309       -0.96055284864911        0.57297377456555
H            4.36364466031731        1.29811768175062        1.37015695478388
H            1.72559332129958        3.54290388274257       -1.03837734292782
H            0.22212949115297        2.72371201525070       -1.38599070653957
H           -1.24530524950964        2.98815198963007        0.14282963467932
H           -4.82298817269826        1.72665196010360        0.40574511084196
H           -3.91980365992675        3.16726231358320        0.55283883882212
