33
 energy: -58.104093978645 gnorm: 0.000950661475 xtb: 6.6.1 (8d0f1dd)
N            5.44679822940461       -1.53512424650326       -0.62980104913406
C            4.45445834527891       -0.99212336734594       -0.42093205908558
C            3.24712886857552       -0.31452101576620       -0.15824426248324
C            2.11641374270158       -1.11212961420249       -0.09798650457278
C            0.76230643896804       -0.84062729717257        0.10387420964306
C           -0.07675909066797       -2.00514554130868        0.23413299880022
N            0.49870590100351       -3.25944156576879        0.38671472350590
C           -1.44976828870521       -1.92381423816640        0.14905509137553
C           -2.04633403753069       -0.68062040563731       -0.00285472658490
C           -3.37926193675436       -0.25177775365591       -0.09906953634173
C           -4.54201710954970       -1.00517352747708       -0.15821803804419
N           -5.52682724933015       -1.60037091838100       -0.22037283365027
C           -3.30784118276242        1.17152944191078       -0.13993671937528
N           -4.37083407008870        2.01157551931118       -0.17665542299095
N           -2.05418155272129        1.61626319556737       -0.07421249590012
C           -1.24208561199651        0.51693905995625        0.00551534931156
C            0.15063877186453        0.47213434937718        0.08052718624120
C            0.87583057509716        1.72436664421210        0.14423277700445
N            0.12260826763790        2.82550279245101        0.18437926468919
C            2.25966249346237        1.93954580053773        0.20703919662801
C            3.34014126280456        1.08949169223787        0.05956439757435
N            4.58589232523687        1.62120981835129        0.12288735801168
H            2.33917136195470       -2.15895374075453       -0.26946545039445
H           -0.17403721913301       -3.99286026180906        0.55019884838454
H            1.30413650827936       -3.32770580868500        0.98704594788172
H           -2.05773535376160       -2.81499172532722        0.21819618775849
H           -4.19751214627432        2.97532738421454       -0.40305131665721
H           -5.26300702027495        1.62454780513907       -0.43235069474780
H            0.55689317670683        3.73052775715096        0.23709184380622
H           -0.90713243967522        2.69599423978638        0.10328798021732
H            2.53286288038499        2.98335157863331        0.33369661251068
H            5.38880626455034        1.04460220858866       -0.06084841431613
H            4.71097217591444        2.61422386153619        0.19719058263425
