35
 energy: -61.517418737470 gnorm: 0.000948697024 xtb: 6.6.1 (8d0f1dd)
N           -5.12360873738773        1.07111321701065       -1.13817674030841
C           -4.13625434785277        0.63169100853371       -0.73755579859965
C           -2.94217389021170        0.07802813140563       -0.24482561187065
C           -3.07746750134475       -1.17465703150269        0.41754792817667
N           -4.33947075641250       -1.55020029881943        0.76653674523475
C           -2.04180826423672       -2.03377670233187        0.72279596059969
C           -0.67674382130214       -1.95728569962975        0.41848999504292
N            0.01249671080822       -3.11326667299354        0.62159999348297
C            0.07393256882846       -0.81476218657901        0.02547037428757
C           -0.45072625643091        0.54088716317248        0.05219999977611
C           -1.78376831291814        0.85297662894489       -0.39485153319840
N           -1.92915667576834        2.00864765664959       -1.07962602456916
C            0.42911102799773        1.60371979605536        0.33661888770553
N           -0.04925949040260        2.90308810229906        0.55681845686376
C            1.82418143734776        1.41474658925522        0.38299862203777
C            2.66173639516102        2.47365211556722        0.77217840946873
N            3.29445976577791        3.36803993810241        1.12045536965647
C            2.35246064135618        0.18911252532567       -0.01132704653892
N            3.63134691252541       -0.14337076966966       -0.19199351919379
C            3.61526841167850       -1.43793281176856       -0.55525907102551
N            4.77849031755860       -2.09690612619727       -0.81332725393521
C            2.31913872837084       -1.99404160636658       -0.56038157668318
C            1.45695801613597       -0.94709591838296       -0.22179501515647
H           -5.12395466195621       -1.02294753456730        0.42236694377032
H           -4.50678164669971       -2.49633824578409        1.05946541445317
H           -2.35035472404937       -2.96359299014310        1.18966512025924
H           -0.45280544825986       -3.85416158011352        1.11894981828381
H            1.01505222561896       -3.04433709344211        0.72750541586445
H           -1.15104262717150        2.64097244440416       -1.16683527357400
H           -2.83777354370198        2.28997246955640       -1.40684669128975
H            0.66193368903519        3.52028602030994        0.92695132293042
H           -0.91175009473885        2.95976269983833        1.07993341218592
H            4.72880293278610       -2.92759994305716       -1.37910462115071
H            5.58040272616261       -1.50478880696718       -0.95650355834273
H            2.08617760979987       -2.97743476030672       -0.92386295253967
