26
 energy: -48.024539274316 gnorm: 0.000680365932 xtb: 6.6.1 (8d0f1dd)
N           -0.94052951823370        4.35300274211480       -0.54189931630930
C           -0.58883652090159        3.26988789674253       -0.39347511265677
C           -0.09165926311661        1.96153355682770       -0.22193288028951
C            1.30042422776820        1.81422982300812       -0.21902980249119
C            1.81570820662302        0.56518430848265       -0.00080394162951
C            3.13500810203570        0.04161684298212        0.15049192767880
N            4.29466247877179        0.70535916239639        0.09145976209963
N            3.10017064703612       -1.28543452088542        0.38885682183745
C            1.82976594475936       -1.66553120857471        0.36770564610440
C            0.94383709428222       -0.58629152892286        0.12440711279130
C           -0.44304354456518       -0.47070960982330        0.01390871098405
C           -1.25996515280400       -1.63246011411029       -0.16311329800776
C           -0.63615145586924       -2.85156431259226       -0.50910176931023
N           -0.22868923090050       -3.87356154275124       -0.83931663759381
C           -2.65376360453077       -1.74531642660684       -0.14796884177806
N           -3.58203652493477       -0.90782377710065        0.24393854914642
C           -3.41736420869724        0.38439996515597        0.45833545669455
C           -2.33982088598434        1.20411908274274        0.18618175719690
C           -0.98463253203240        0.87475548171454       -0.04227628515647
H            1.92456777019315        2.68631617285542       -0.35575845691597
H            5.14620517875160        0.18858481993793        0.22474058225275
H            4.32370624586364        1.69475267507496       -0.07347476980698
H            1.58683121136287       -2.69192945313304        0.56336022864496
H           -3.04978155675692       -2.71637055372744       -0.43522807818172
H           -4.31626218367177        0.86552731795511        0.83207867902144
H           -2.53974245434942        2.26722660533197        0.25293498637135
