32
 energy: -59.165984689584 gnorm: 0.000779979167 xtb: 6.6.1 (8d0f1dd)
N            5.60027448899583       -0.92524768115426       -0.53629114517861
C            4.48513696596156       -0.69156734593404       -0.37998645754305
C            3.11537906253747       -0.46029944082285       -0.16819235758925
C            2.60755998716454        0.79509787844719       -0.44131950631717
C            1.31418601800250        1.29146179792865       -0.24871676952326
C            1.20276568485338        2.65366186321342       -0.62098293915673
N            1.19873679848497        3.73351293385440       -1.01131472158790
C            0.12438176457027        0.59737495159622        0.08875665712910
C           -1.05999850351781        1.31415358221453        0.32771316111689
C           -1.03689422168819        2.66236057092751        0.72963655235301
N           -1.15506089104640        3.71861751266873        1.17026286657665
C           -2.35090084912001        0.71354257263558        0.25821685175089
N           -3.45917328826644        1.45974951224471        0.49127319601889
C           -2.41093434708329       -0.62722103394662       -0.11146922184974
C           -3.49430787278994       -1.50966566248516       -0.34706161809606
N           -4.82032475963669       -1.17618139002881       -0.40787076667295
C           -2.96827880565467       -2.81272783247824       -0.47757909577260
C           -1.59811505351166       -2.76315036468272       -0.34935130087476
C           -1.20925361148734       -1.41658985161449       -0.14168326260199
C            0.05459307924668       -0.86678303043655        0.06178279608878
N            1.05403208555280       -1.70392475573579        0.31475129565288
C            2.34548062954588       -1.55403316060844        0.37400038504896
N            3.02498854700287       -2.57022015273085        0.94608801021768
H            3.32261564777262        1.51854808222775       -0.81982063565633
H           -3.32682364250414        2.38600826165077        0.86948247944141
H           -4.30880285218768        0.98153365454860        0.73881507396832
H           -5.04398175819276       -0.26248757373839       -0.77173029610649
H           -5.43288013150374       -1.91002987731891       -0.73097735230420
H           -3.55834115454821       -3.69178574747221       -0.66266357472062
H           -0.91956697875778       -3.59179378651159       -0.41412953302907
H            2.50679966350904       -3.37217569713879        1.25930898845991
H            4.02953456767652       -2.59918236943940        0.91825071474835
