32
 energy: -54.361144618958 gnorm: 0.000360682867 xtb: 6.6.1 (8d0f1dd)
N            4.61771032060679       -2.01097912813582        0.00892030589633
C            3.58453817018498       -1.49944827437943        0.00622133440731
C            2.32045487765244       -0.88789485921022        0.02420806274081
C            1.22666176973382       -1.74133851489231        0.29430224490265
N            1.51815997874436       -3.05293210628449        0.53512077522042
C           -0.12540191543264       -1.41401937500617        0.24447153591547
C           -0.80188050047626       -0.20350139454828        0.07597367056209
C           -0.19331733733312        1.11673516810185        0.13693549344106
C           -1.01948632917327        2.22110526813309        0.36196347254193
C           -2.40272515707227        2.14131509198329        0.42844946788458
C           -3.01269389092413        0.92931817940973        0.19676139064198
C           -4.37714464027873        0.54418793494216        0.11564387972986
C           -4.42883808958152       -0.79177816373347       -0.20029439689533
C           -3.11063606876378       -1.29518968569174       -0.31654205447203
N           -2.81412457743108       -2.58327254553851       -0.67536998688340
C           -2.20646145172882       -0.23797402141449       -0.03319953270822
C            1.19735256402502        1.37513238097409       -0.06322801815948
C            1.54691208779286        2.73733083972753       -0.18261820868538
N            1.90209189193909        3.82779246374044       -0.28892459498071
C            2.30172214639312        0.51085652896600       -0.20498172986569
N            3.49107585797675        1.06731399831778       -0.55372402802324
H            0.79390962980089       -3.66054821773930        0.87435163964500
H            2.47284437118906       -3.32855780303391        0.69084327210323
H           -0.77395705147246       -2.25855202925259        0.43882683781214
H           -0.55729949429238        3.18960565865598        0.48112225595915
H           -2.98448196394181        3.03115490817670        0.61934451499862
H           -5.21546497269361        1.19937525122155        0.26343472376976
H           -5.31633014274910       -1.37731380599441       -0.36152988309527
H           -1.94171414672120       -2.72490974888874       -1.16333939157680
H           -3.59070101995112       -3.10762260966225       -1.05099615998371
H            4.32557783162836        0.50650878741926       -0.55305097482260
H            3.57780352276071        2.06626317022010       -0.62737216952921
