28
 energy: -50.708514068545 gnorm: 0.000676014519 xtb: 6.6.1 (8d0f1dd)
N           -2.45003936979828        3.18471663042456       -0.52702030595916
C           -2.30064004646633        2.05532904532359       -0.34393512074061
C           -2.20171180038562        0.69409807188824       -0.10452296924854
C           -3.33340177542781       -0.15654386979072        0.15399351976547
N           -4.62229978041832        0.24435826934251        0.11190067457618
N           -2.98855891302545       -1.41656126536929        0.39234155106748
C           -1.64153834323763       -1.45785911369863        0.29911041150095
C           -0.80208781102449       -2.53696187109698        0.47920498480196
C            0.56308388518198       -2.36524077298446        0.28645035973612
C            1.13512412412609       -1.13000286539219       -0.00522589180697
C            2.54012882626402       -1.06197932423922       -0.35256521453621
N            3.10409891737904       -2.14481520252427       -0.91381689289177
N            3.36972671306293       -0.07635060881233       -0.10317807042577
C            3.04408450710628        1.16665669090402        0.22950070770057
N            3.98006956774225        1.87587543802907        0.88156524549510
N            1.96921582792718        1.85224777146378       -0.15798644265002
C            0.79176477952775        1.33806702473406       -0.39079729025694
C            0.30429224470721        0.04323533893046       -0.12317544061615
C           -1.08832378187308       -0.15185605393207       -0.02320215580596
H           -4.82494868182403        1.22865228920652        0.11268670313171
H           -5.32022563201920       -0.39602200434372        0.44611800240154
H           -1.20483598013363       -3.50201612177728        0.74299333639913
H            1.20865027668918       -3.22395318594672        0.41093050649463
H            4.07956534275224       -2.10651477098226       -1.15396607359717
H            2.55425838041031       -2.94568413321064       -1.16530654277591
H            3.83104461768900        2.85955161706519        1.01827437262021
H            4.86873280351729        1.45699449691264        1.08712258320638
H            0.06776923725470        2.06837184997486       -0.73994436458571
