28
 energy: -51.478620308495 gnorm: 0.000824311055 xtb: 6.6.1 (8d0f1dd)
N           -4.07815358068722        2.60885576466669        0.22717674603791
C           -3.38742389594125        1.69109552085069        0.18040478022459
C           -2.59606266983712        0.52444575725698        0.12593594433213
C           -3.27137584290610       -0.61784601690510        0.54708890420352
N           -2.96609581397166       -1.89127211801157        0.41493446528454
C           -1.83096799810436       -2.35330422456075       -0.06554253322621
C           -0.58899198693085       -1.74956342857320       -0.20973829373612
C            0.39140433688394       -2.60325164983292       -0.73553280764904
N            1.16463795674125       -3.33215059762495       -1.18250064156363
C           -0.22188286746002       -0.35924328651691       -0.03408550183439
C           -1.19514275486091        0.69875335238183       -0.16484950833403
C           -0.76339218713816        1.99353298615129       -0.46499414637601
C            0.57630670063305        2.34904741946016       -0.49536065799502
C            1.50306551526946        1.39448374787057       -0.15234986608611
C            2.92097073083246        1.42217744534783        0.04630793066777
N            3.73217600303055        2.47086566077955       -0.11377846558261
N            3.38191252602171        0.23167269724242        0.44429710577309
C            2.34227129374832       -0.61836763177657        0.48229051760912
N            2.54005882730968       -1.83431900690709        0.99433493182642
C            1.10597128470995        0.03168261537826        0.09146579258586
H           -4.25668250308733       -0.46062904076901        0.97796615912819
H           -1.88237723667427       -3.40684095135213       -0.33252184753624
H           -1.50981846285357        2.74867528237831       -0.65893292916943
H            0.86239967546112        3.36173547434652       -0.73810104009242
H            3.37364347549552        3.36344098950897       -0.39932048981681
H            4.71363488170229        2.35647020248777        0.06813124613443
H            3.50087397649516       -2.07441235903573        1.18167000102921
H            1.88929200971693       -2.58597600254361        0.83819657406141
