26
 energy: -48.046075692961 gnorm: 0.000491754875 xtb: 6.6.1 (8d0f1dd)
N           -5.47281184302464       -1.73867465096006        0.00459128861301
C           -4.48388087652959       -1.15919260426651        0.00200533832589
C           -3.26348896264863       -0.43607891320657        0.00205896648581
C           -3.38878534487810        0.96679073880189        0.00040165061270
C           -2.40076945721706        1.90734145964647       -0.00076782975916
C           -0.99098515332788        1.76656947220462       -0.00073469086956
N           -0.27782234037396        2.88253887766680       -0.00230362781631
C           -0.23149024847573        0.53397977898573        0.00082337185657
C           -0.75793366507450       -0.80377205264086        0.00255440387084
C            0.17512716183183       -1.88938629042695        0.00388760714555
N            1.47165099981327       -1.80309371787947        0.00369042909130
C            1.98440694288784       -0.57304954055017        0.00215715876780
C            3.31396700063370       -0.11224907261803        0.00124362328607
C            4.49336340386194       -0.85879105132850        0.00117818332783
N            5.47723966553889       -1.45131809208525        0.00455194446709
C            3.21382497595414        1.29254996426402       -0.00035600552188
N            1.95661826038586        1.72371164720038       -0.00076715974041
C            1.16318537940629        0.61819208649502        0.00067423977454
C           -2.10515379621358       -1.19162094907213        0.00299470562289
H           -4.40750426135653        1.33618562207429       -0.00007371779091
H           -2.73445312731853        2.93930767118174       -0.00204577165544
H            0.76746555989512        2.78177798794514       -0.00227184648848
H           -0.73622936479692        3.77929671292485       -0.00344320342174
H           -0.21644874588392       -2.89857062672106        0.00516614174256
H            4.02984384267185        1.99275484872564       -0.00147082033188
H           -2.26472035616112       -2.26492468816101        0.00420846990539
