24
 energy: -38.974773809171 gnorm: 0.000785893042 xtb: 6.6.1 (8d0f1dd)
N           -4.28717019578901       -1.21464719710532        0.04518270300026
C           -3.07147526342752       -0.59305102020972        0.08021857385299
C           -2.87548323441008        0.80173529794732        0.07089240690551
C           -1.50626481829971        1.03608077183453        0.05147201500160
N           -0.84979250207065        2.18720894657634        0.03887953824675
C            0.46001038447297        2.13872141452820       -0.03236364442538
C            1.25685290163950        0.97263231640216       -0.04902547948136
C            2.64367472586886        1.14195801038057       -0.10980098704506
C            3.66030852487190        0.21168051123338        0.04907541944637
C            3.50049462795717       -1.15881691483238        0.22406580244078
N            2.45298800038155       -1.90027192036616       -0.06842847446564
C            1.22402109088813       -1.54187185708929       -0.29980065550564
C            0.56128289235336       -0.31604248277831       -0.05562486952162
C           -0.82712482952146       -0.27060070224906        0.01582624683880
C           -1.82732423811060       -1.24490349111398        0.05113637243317
H           -5.09154476255972       -0.66826987228593        0.30334861041307
H           -4.31716132118945       -2.18894906230564        0.29480714011590
H           -3.64733448564853        1.54669842096136        0.06723999708737
H            0.95487176796442        3.10264204559460       -0.04293761212626
H            2.96652522814981        2.17361897628805       -0.20333535819832
H            4.67232265157072        0.59285550835820        0.09054674635995
H            4.35971516796658       -1.73595811821854        0.54972766898015
H            0.59841595778256       -2.35190468241349       -0.66559383917377
H           -1.68975136044071       -2.31028867983680        0.08434638382039
