32
 energy: -58.381380477057 gnorm: 0.000738091727 xtb: 6.6.1 (8d0f1dd)
N            5.45836601302246        0.23202023600308        0.24996282153608
C            4.31910308901325        0.10097323015970        0.14370845214080
C            2.93194625992216       -0.07186232177804        0.02694653177008
C            2.41759851058878       -1.35156563562211        0.37397286870976
N            3.15794171426162       -2.17185973884376        1.14293090726170
N            1.32020882977087       -1.86961204906577       -0.13809255910049
C            0.25874163381009       -1.27885174785735       -0.61721611176731
N           -0.48226902120815       -1.97235168570009       -1.48602046844070
C           -0.18452821742296        0.05502489726044       -0.23645530842352
C            0.74206605185675        1.14605381343609       -0.21267589369804
C            0.20860218378505        2.43838777459301        0.02371050082922
N           -1.04848625299349        2.72545772210448        0.22702606790952
C           -1.92706334013064        1.72516901365094        0.21010611692750
C           -3.30436080006885        1.76613407284107        0.38930792554709
C           -3.78358297069834        0.45301727213373        0.35122397655165
N           -5.08844252378316        0.06915825746210        0.44426910043173
C           -2.70421320738384       -0.44184052347848        0.11404765599532
C           -2.83553635532010       -1.82018761717657        0.09936328533831
N           -2.96509943344675       -2.96857342929961        0.07994756377040
C           -1.52276985280836        0.33418734530885        0.00266263664718
C            2.15671547719558        1.02887644470985       -0.39658915814683
N            2.82674600555628        2.08925952277144       -0.89597610310700
H            2.84869047922872       -3.11961580821063        1.27025053993300
H            4.08680787610154       -1.90839786761482        1.42319943489391
H           -1.41059773398329       -1.65702583121391       -1.71465910488852
H           -0.26884999825478       -2.94616877187828       -1.62974706035947
H            0.87790700691953        3.28400589304422        0.13115764499628
H           -3.89485431726633        2.64752624789911        0.54586477174680
H           -5.73868816587320        0.72821294201533        0.83718374884669
H           -5.27344866486372       -0.90387998363947        0.62636683117489
H            3.83303272141292        2.10254411125300       -0.86439465241981
H            2.33924686405989        2.93639206423212       -1.12538289250617
