33
 energy: -63.696237331976 gnorm: 0.000842940546 xtb: 6.6.1 (8d0f1dd)
N           -6.01671459144002        0.00564213556991       -1.31365263996897
C           -4.92260482905877       -0.14049016355861       -0.99709310862082
C           -3.59026702036756       -0.33886708262627       -0.61188765864826
C           -3.04160913563190       -1.56935756925802       -0.20508697541165
C           -1.68370416744072       -1.36480846504279        0.04210058366761
C           -0.67760651448606       -2.23709397870510        0.48834442171484
N           -0.93883708892361       -3.50068746417270        0.85139013652115
C            0.65297905210113       -1.74532156455314        0.49285489298083
C            1.64668882489127       -2.64379969725918        0.92218870501536
N            2.35153972110283       -3.42718790534850        1.38292031455286
C            0.97841899816462       -0.42452764167784        0.12389420067726
C            2.29401860570241       -0.14297463967548       -0.28973174736532
C            3.13027175720633       -1.21744737777920       -0.65680063186700
N            3.86120687707426       -2.00149892035124       -1.07330420135849
C            2.86925452042863        1.14151445130102       -0.52855181208253
N            3.98351659253601        1.22499399412007       -1.27728906355523
N            2.48387229124504        2.27923009018948        0.01696342321666
C            1.32380897393655        2.59527792694442        0.54465056961184
N            1.31815600643089        3.73010335733810        1.26633331173070
C            0.07486305551445        1.91874864626333        0.32321471883491
C           -1.04452234500292        2.74068030727646        0.56247717119057
N           -1.86769846928077        3.50005833738893        0.82473340933085
C           -0.10717570061807        0.55973803593920        0.04637543037601
C           -1.39339243360754        0.02884608004070       -0.17996732498352
C           -2.59164897994415        0.64109511653172       -0.58519413485876
H           -3.59050110195541       -2.48951630144321       -0.12014041096278
H           -1.87549958659954       -3.85799812113312        0.79411873050292
H           -0.19083386318403       -4.11473149049571        1.12967808094681
H            4.43404980988264        0.39706646442594       -1.62878710907517
H            4.44175177455423        2.11630552293261       -1.35161940546604
H            2.17378177827381        4.25247234255846        1.33921610523211
H            0.45838528712696        4.12495301954523        1.60755170645434
H           -2.72942384083347        1.66227921661299       -0.88303365193142
