33
 energy: -58.094386855790 gnorm: 0.000950988180 xtb: 6.6.1 (8d0f1dd)
N            4.96547419402199       -1.69976629618928       -0.41839782189015
C            3.97982365492557       -1.11672979917220       -0.28948949406674
C            2.80596097695302       -0.38731996619280       -0.14887689823646
C            2.71276502341761        1.02883094534963       -0.21797485345297
N            3.76575927787809        1.87484794078670       -0.36074252196080
C            1.36948490771044        1.40699243898155       -0.04645985611946
C            0.92616112308597        2.71353309859084       -0.18280308808904
N            0.58447190515113        3.81101694266197       -0.30007081472295
C            0.58837467764510        0.21023654814467        0.11568367794066
C            1.50646822123250       -0.89732363239893        0.02491373052386
C            1.04454197096116       -2.20433541255981        0.11121271912166
C           -0.31081615016319       -2.45992795015207        0.17687714904871
N           -0.72743299139023       -3.77945505150568        0.23000083938911
C           -1.25534889299478       -1.38013631075072        0.20513903784838
C           -2.62448303251160       -1.68296591761556        0.16498921563521
N           -3.63492670554632       -0.97790367747471       -0.26615830671586
C           -3.72252752466644        0.33258536607598       -0.44342435773529
N           -4.78152145098920        0.73910044842867       -1.17506340871456
C           -2.93056301506220        1.28624102245429        0.21974900267117
C           -1.63949022926732        1.08170269581257        0.66536569227423
N           -1.10767552871030        1.98630625581586        1.50964948145340
C           -0.76966481981603       -0.02153635463097        0.27707818067139
H            4.64074713185579        1.48718796003398       -0.67171500163758
H            3.57364657292384        2.83313551834060       -0.60088417724526
H            1.74926906962680       -3.02376912342014        0.08343383627459
H           -0.00221803271162       -4.44566103404297        0.01209574369374
H           -1.61685692657835       -4.01150627185300       -0.17905375702692
H           -2.92216705252821       -2.69867131324902        0.40705281344696
H           -5.39496807894879        0.04577431728047       -1.56461936968008
H           -4.98453167057261        1.71349187371306       -1.29634812826509
H           -3.36673628440058        2.26112729218541        0.39530489886483
H           -1.55958640071329        2.87641519983929        1.63701054961640
H           -0.12742046231546        1.93949410771375        1.73339724188303
