30
 energy: -54.946148756006 gnorm: 0.000753294149 xtb: 6.6.1 (8d0f1dd)
N           -2.53464867460789       -4.06912708195687        0.61134468777007
C           -1.94517642165015       -3.09974354097531        0.43836449549104
C           -1.16758801747278       -1.94642119156006        0.21637759386090
C            0.21834393203101       -2.06866657302120        0.07763973471071
C            1.05741196463717       -0.97464677554062       -0.10909673030652
C            2.45668841966289       -1.22294397017853       -0.38084016516156
N            2.78112577915891       -2.37379109887811       -0.99495418320958
N            3.48930670848016       -0.49719352168550       -0.02340649500326
C            3.56037095838061        0.77847424759968        0.30364294797161
N            4.72139322856573        1.16068496123820        0.87073577057182
C            2.59905384562035        1.77215088672881       -0.00890929904970
C            1.27106928662575        1.55189675278807       -0.24181320947439
C            0.51690443980058        0.35922884008182       -0.14856399867190
C           -0.88554554254714        0.47379509698137       -0.09889440924121
C           -1.77907446441510        1.55954659733366       -0.14824983783726
C           -1.55597875762872        2.91607146763694       -0.31937323196352
N           -1.42691740329707        4.05386303411573       -0.46437915685472
C           -3.08085326125413        0.98012369736990        0.00885176448392
N           -4.23984889357585        1.66459749027588        0.04742512826478
N           -3.04053454329030       -0.34570376126650        0.15357693033571
C           -1.74323967562252       -0.68331190792492        0.09962871310680
H            0.64118439969704       -3.05980969238343        0.16730010672701
H            3.75232768582435       -2.56988508445490       -1.16494556859476
H            2.07735032122277       -3.01261256684449       -1.31738068212109
H            4.88332430044797        2.11895006332979        1.11980140889680
H            5.41449011691119        0.46520254204447        1.08257015099733
H            2.94705841974689        2.79602242724761       -0.00088050562908
H            0.67691820067679        2.43908730542924       -0.42094859810928
H           -5.09666239578440        1.14101946023560        0.04579790850959
H           -4.25141625674498        2.63730849713650       -0.20217480187076
