26
 energy: -43.239866341669 gnorm: 0.000417395731 xtb: 6.6.1 (8d0f1dd)
N            5.23069826310625        1.62740813392947       -0.00922736902011
C            4.24454468940855        1.03740783115027       -0.00488757030606
C            3.03610657831195        0.33098858125552       -0.00026094587562
C            2.89722908381019       -1.06032031363907        0.00662635508821
C            1.52369687342950       -1.34583259833687        0.00697565540777
C            0.82783257031438       -2.54440105290442        0.01020884412170
C           -0.55200942792600       -2.52559720634729        0.00517141235560
C           -1.30667555934862       -1.34283137962653       -0.00101462109210
C           -2.70467368439402       -1.48173109420217       -0.01080002634541
C           -3.71478071745442       -0.53515763718376       -0.01714096689902
N           -3.69527676144869        0.78013983529023       -0.00898509501656
C           -2.60671903888645        1.54326448828514        0.00430112204938
N           -2.89300488702487        2.86639738832100        0.01308340151757
C           -1.24304788963591        1.18259484964092        0.00596446181458
C           -0.61359154075309       -0.05289202279025        0.00097116003490
C            0.80160553369215       -0.09172547906500        0.00126876184823
C            1.75707309122156        0.92673158108857       -0.00315988737717
H            3.69875589955826       -1.77518660074844        0.01048272297160
H            1.35847841724728       -3.48591135127027        0.01509225715469
H           -1.08843577158489       -3.46369529418806        0.00532231165259
H           -3.05363584405637       -2.50795882559858       -0.01517958868847
H           -4.72999677238630       -0.92334309119409       -0.02860619467197
H           -3.85983847085336        3.13841854463950        0.01886874319316
H           -2.17515375277624        3.56634785612238        0.03465789725131
H           -0.57273436845526        2.03311355786294        0.01241704688413
H            1.59412068758420        1.98915172730911       -0.00944694835289
