34
 energy: -62.623546866028 gnorm: 0.000706835053 xtb: 6.6.1 (8d0f1dd)
N           -5.53432819905497       -2.53613053438651       -0.02148929363681
C           -4.54216434217254       -1.95218436530495       -0.00983636201804
C           -3.33978861927051       -1.22782657730793        0.00147931983129
C           -2.16589626798922       -1.98417036640504        0.09308258472521
N           -0.90540995315116       -1.66577585813410        0.10485557254477
C           -0.32476663733561       -0.44109132242955        0.04773137794513
C           -0.97011229727486        0.86158807428555        0.01072622765563
C           -2.35433166580014        1.07783708231024       -0.04762878793268
C           -3.42768356256786        0.19358532473021       -0.06796027605473
N           -4.66822903443303        0.72493670284235       -0.15479912799180
C           -0.14182014621141        2.01269223185883        0.04103616166473
C           -0.72813511831840        3.28786287174813        0.09169747240748
N           -1.14686525381567        4.35937767166493        0.14858458522656
C            1.27560644568644        1.98133942967280        0.05107672279921
N            1.98795388222187        3.14647829902609        0.08065990133453
C            1.88330869516623        0.73242217031630       -0.01415074759893
C            3.23355802950786        0.31559102339686       -0.08867224705261
N            4.33900307488469        1.10542416049646       -0.17145809268226
C            3.26341557810000       -1.10102436321348       -0.03713165753081
C            4.41887507491511       -1.87654488631975       -0.09568224894022
N            5.38284497015445       -2.50281155623209       -0.15500947169015
C            1.93885957386551       -1.58231417602804        0.03642257330966
N            1.51141365857066       -2.84188318238587        0.09181337716185
C            1.06219551852345       -0.44905804352758        0.03067435298995
H           -2.32559717588125       -3.06024166809802        0.16047941573526
H           -2.64587583693465        2.12182077415215       -0.09313872253542
H           -4.79331474960197        1.72087982140729       -0.18494445507432
H           -5.47707319582841        0.12733462246680       -0.15754991803686
H            2.90721426893846        3.11605910048901        0.48956319287181
H            1.46230622601488        3.99034753900408        0.25595720066054
H            4.24216069833915        2.00135214108786       -0.62132541454633
H            5.20815252903720        0.62500984792683       -0.35171484950965
H            0.49848375886862       -2.93962644158664        0.12401109493937
H            2.15070816583856       -3.61735625441598        0.08707099262356
