29
 energy: -50.407892615108 gnorm: 0.000594940681 xtb: 6.6.1 (8d0f1dd)
N            5.14945263114847       -1.18740853457102        0.16816862894577
C            4.09006956584381       -0.73617561937076        0.13056935876049
C            2.85035025424551       -0.10789584005406        0.11182983703115
C            2.66627944068010        1.30074181544961        0.26506320235181
N            3.69520420607428        2.19334642996327        0.37728578958270
C            1.31123091829438        1.60311655816547        0.18901523086349
C            0.59752864440607        0.40345308281303        0.01053162474964
C            1.58001208179207       -0.68266948642472       -0.01307508667432
N            1.25121095034040       -1.96093043772810       -0.15557452126948
C           -0.01959375043968       -2.24835667340590       -0.25152759970291
C           -1.08823670817986       -1.31645273604089       -0.22361994374775
C           -2.39084688378096       -1.85217044382356       -0.25744281923148
C           -3.59236738932743       -1.25856164045943        0.02538867803450
C           -3.78959849450047        0.11507186436634        0.30090788535968
N           -4.95260180447858        0.49773585250928        0.87313913954436
N           -3.00191118081919        1.10779203101862       -0.06754552190228
C           -1.73882730075324        1.09857654224495       -0.42157375160109
N           -1.32009704591215        2.20803612164281       -1.05037568111959
C           -0.74739344303706        0.07881278592268       -0.15155703623645
H            3.48505904780511        3.09777360970319        0.76554442625147
H            4.59511736994023        1.80867254583270        0.61633950010354
H            0.90121109098391        2.58673707330608        0.33757929812668
H           -0.25202773576030       -3.30342292350582       -0.32662035515083
H           -2.42721362591605       -2.92183127716670       -0.43115551632616
H           -4.46819259735547       -1.89046114348156        0.09009169383762
H           -5.63069131845181       -0.17975478622434        1.16848589049150
H           -5.10183441637225        1.47196794737070        1.06492179921753
H           -1.99095767574889        2.91978361000511       -1.28145893679774
H           -0.36789644392074        2.27462683294263       -1.36723075279150
