25
 energy: -47.520712576482 gnorm: 0.000584461609 xtb: 6.6.1 (8d0f1dd)
N            3.38875890819072        3.53598006534656        0.11132372301053
C            2.88991667541768        2.50465707866595        0.05126832689737
C            2.29173311429096        1.22612942463967       -0.01091204668623
C            3.11197658652719        0.15386522519993       -0.41057378695099
N            2.89834803048697       -1.11511629834817       -0.24755783986721
C            1.80972636702248       -1.77489529163645        0.11477629287203
N            2.04070681500727       -2.98178125630266        0.64755893478168
C            0.45439017993710       -1.36093072043588       -0.11359210546948
C           -0.53786154277858       -2.31079657686655       -0.35938185392656
N           -1.84050130791801       -2.08899779710257       -0.44937665519157
C           -2.23921726493152       -0.84970552170489       -0.24910414251636
N           -3.48218966821958       -0.35953744095937       -0.24253851216017
C           -3.30519834403336        0.94729072576615       -0.01138657338269
N           -4.32766303920436        1.80166675453390        0.09016992104899
N           -2.01723224499425        1.37602356591723        0.14964445626480
C           -1.30945617666584        0.26351501854027        0.01161553814503
C            0.07861287639220        0.03450832162554        0.03721875628493
C            0.91664174092933        1.13469178615802        0.20861765915540
H            4.07846135500534        0.39130185608368       -0.84550319188998
H            1.28271253323108       -3.58971308559399        0.90320102161009
H            2.99272849615415       -3.29026948498198        0.75610047785141
H           -0.25606260177336       -3.34208980516753       -0.53946203756701
H           -4.13667976072908        2.78241008447966        0.18320329673182
H           -5.25585148724482        1.46825022322059       -0.09457479580437
H            0.39182494500002        2.06048313172282        0.41577669435839
