28
 energy: -47.476371338551 gnorm: 0.000833730971 xtb: 6.6.1 (8d0f1dd)
N            3.99034551252071        2.02029649344325        0.39107651381414
C            3.21182042976218        1.18396649479554        0.27761182069948
C            2.31085106951203        0.09688679257114        0.14597630075878
C            2.94802923444924       -1.12732514055094        0.29255475614744
C            2.42826278836600       -2.40399439549341        0.14028070176641
C            1.12292689054335       -2.73773468210631       -0.16074850187413
C           -0.00900592498168       -1.92262549514835       -0.22712658369995
C           -1.13937562594484       -2.66907395653550       -0.64769195187777
N           -1.94705373841045       -3.36831194024457       -1.06908100108133
C           -0.17036437188083       -0.52883801999328       -0.00996308107972
C            0.93504543214021        0.43469761642528       -0.04741768419438
C            0.64351183025334        1.77770684909581       -0.22630836539976
C           -0.65695215718105        2.30581847998178       -0.23730112948543
N           -0.85225781037676        3.62140882848645       -0.45355143723408
C           -1.71369950847344        1.42500499001185        0.01814966287940
C           -3.08470908671856        1.62406311139461        0.18959378076848
C           -3.67104814387868        0.38125116161445        0.45936606399486
C           -2.70046870583357       -0.60101764307558        0.43231795831367
C           -1.45064528285865        0.00793515949228        0.14484851612129
H            4.00912708835214       -1.06799692690185        0.50754474410071
H            3.12917427877206       -3.22265752940313        0.22948160220230
H            0.93290718732701       -3.78851944989473       -0.34949875241384
H            1.46203650328246        2.47563279451773       -0.33304602614057
H           -0.06805691013401        4.24297155035158       -0.54423232243977
H           -1.77348654675378        4.01183187790365       -0.37493198891672
H           -3.60871377260367        2.56183395410320        0.14165395396140
H           -4.71346200986637        0.22081522736999        0.66485733169235
H           -2.86790257938445       -1.63780234501096        0.64878154641676
