37
 energy: -71.371128744308 gnorm: 0.000742075888 xtb: 6.6.1 (8d0f1dd)
N           -6.04475506307366       -1.36903979736530       -1.09813438988344
C           -5.05070600380956       -0.87604334241152       -0.79741458316337
C           -3.81981989368703       -0.31661488465671       -0.44646369436896
C           -3.57796823566214        0.99156253718314       -0.03173916493364
C           -2.19823838785677        1.14310743732060        0.15911185118537
C           -1.44552732441057        2.25229624789258        0.55405995408930
N           -2.00777338575501        3.41095290563816        0.93818575440371
C           -0.03187988133891        2.13035804308617        0.47162092953572
C            0.71135731500956        3.26371525054307        0.85059097299848
N            1.21116931903014        4.20633227928573        1.27991309635193
C            0.60793902997708        0.93352374685670        0.10265110660843
C            1.94075214024254        1.00514539167577       -0.37381579504003
C            2.34318190836440        2.26849320485398       -0.86352107124735
N            2.71646472912872        3.23023402113135       -1.37209926469094
C            2.90294554752311       -0.01094582152795       -0.56575595038936
N            4.04027535497637        0.31839220999294       -1.21723652080612
C            2.81957915836915       -1.33357375336202       -0.06602193999465
C            4.00436429384862       -2.09065582813097       -0.14359907865853
N            4.96898212613174       -2.71523895877198       -0.21015312765707
C            1.71494091672496       -1.99142199975084        0.51431679377483
N            1.95082086700441       -3.20132220634766        1.07215675353462
C            0.37027922905365       -1.54557986076579        0.47870989894773
C           -0.54829605278462       -2.46051345033045        1.02510513981769
N           -1.26356100659293       -3.22875808179479        1.49903816730854
C           -0.17699728583214       -0.29156841669038        0.11342170028859
C           -1.55713385608060       -0.12860121598718       -0.07842768148972
C           -2.58748781210757       -1.02965256331479       -0.48821063871190
N           -2.49026335898740       -2.26091848614634       -1.02010636228935
H           -4.33456387922528        1.74386615725187        0.09606635003936
H           -3.00615068819611        3.51112660832430        0.94781110423316
H           -1.42933169927541        4.20262682259087        1.16509147522831
H            4.79181258287421       -0.34641734611223       -1.28940719732854
H            4.19977800735487        1.26893459273375       -1.50658251080212
H            2.88443880786920       -3.57445842542350        1.09319247840141
H            1.20262509763583       -3.73124361342209        1.48492738976476
H           -1.64805307422068       -2.80330250208604       -0.95303548118945
H           -3.34666250372196       -2.75304292056308       -1.21765681376676
