27
 energy: -46.159539425394 gnorm: 0.000839615948 xtb: 6.6.1 (8d0f1dd)
N           -4.65999848580529       -0.64348050212579        0.14633588710124
C           -3.36571719244013       -0.17545825936653        0.15888240517684
C           -3.00060010800679        1.18274935721673        0.13123930986738
C           -1.61751458614141        1.24428035289910        0.10136456341045
N           -0.82060973551079        2.30816743110761        0.11061166312527
C            0.47130905122650        2.10286573940644        0.05276088228424
C            1.10708544888621        0.84271366435460       -0.00135712174630
C            2.52876510691866        0.77317974297888       -0.11032684410905
N            3.20181050822762        1.78026891346905       -0.70223267520361
N            3.30830852053659       -0.15334700564541        0.44583958031913
C            2.94685188429128       -1.36670340206369        0.75702013530556
N            1.97338620288564       -2.08893783040508        0.25341399929806
C            0.85192330115722       -1.63308684269858       -0.26711608699017
N            0.14986525484505       -2.49670157418893       -1.01380667971242
C            0.27226406452780       -0.33159160134061       -0.00950700215109
C           -1.10361270410697       -0.13984000808544        0.05794818592122
C           -2.22046053656343       -0.98036150081877        0.10285818315843
H           -4.79334002793259       -1.58289193168586        0.48641925265435
H           -5.36091190163661        0.01225252157142        0.45287736302634
H           -3.67449469555358        2.01737410557299        0.14745327652825
H            1.07602012076740        3.00083163496570        0.11649571498550
H            4.20451574516055        1.78452275226017       -0.62791858650328
H            2.72100326339266        2.59880593940766       -1.02765866941723
H            3.63342756203791       -1.90536001505536        1.40278368369828
H            0.51657899939091       -3.41874545420908       -1.17398228984690
H           -0.75092610307806       -2.22801453740183       -1.37098352355859
H           -2.22972042137594       -2.05457430091942        0.17462837907848
