27
 energy: -46.967352107179 gnorm: 0.000771730310 xtb: 6.6.1 (8d0f1dd)
N           -5.35422871050178       -0.05086993017165        0.12959820368391
C           -4.22551932037897        0.16160975087732        0.08061407868120
C           -2.84031002068703        0.43779115070405        0.02155616655795
C           -2.54675912649320        1.78652157526296       -0.15935624467495
C           -1.31623598028332        2.41288055433733       -0.13119380581606
C           -0.07949675958338        1.81009279210740        0.01251449180095
C            0.28667906061009        0.46585512000363        0.01854760923658
C           -0.56312013535912       -0.71796502829120       -0.03850708597723
C            0.05046992175222       -1.96711560523024       -0.23461132625111
C            1.41757954169825       -2.17201844573657       -0.30292028830401
C            2.25704641597220       -1.08944418151426       -0.12022420649142
N            3.59398885282318       -0.97226135887295       -0.10759836005116
C            3.78814376917815        0.34575724928215        0.05358662525141
N            5.01882835087782        0.87925114833238        0.17454915045173
N            2.67609663284111        1.11709410966571        0.13244433347296
C            1.67749788847942        0.23226395873073        0.03981666714441
C           -1.97491492267494       -0.68729107717616        0.15941823902395
N           -2.59933328408919       -1.84061990894688        0.47739148174142
H           -3.41442613465479        2.42569317390309       -0.28005900194139
H           -1.32404684425649        3.49094838295813       -0.21563043093368
H            0.77675816112813        2.47157819758597        0.07348700296635
H           -0.56947125032231       -2.83695104573986       -0.40085649077680
H            1.81616208775686       -3.15748202149657       -0.48807572218155
H            5.10430598993694        1.87651725943630        0.09452317225737
H            5.80105711223208        0.29744763511405       -0.06618237783948
H           -3.59909704837942       -1.85420137435058        0.59745231239367
H           -2.07957992962328       -2.67545165357569        0.67662838577484
