29
 energy: -55.990216962880 gnorm: 0.000716699983 xtb: 6.6.1 (8d0f1dd)
N            5.59832483140880       -1.78983045259468        0.14295636848017
C            4.51025375672349       -1.43599677804511        0.05525086599238
C            3.16786024699071       -1.01746785581937       -0.05654164623724
C            2.25273830637966       -1.91836814667646       -0.64548032506987
N            0.96421850937773       -1.90323554971284       -0.56560084447813
C            0.09413824398762       -0.98474878921224       -0.17721577555501
C            0.35195604783433        0.45842373384761       -0.14819148006834
C            1.63715544699682        0.95190948180532        0.22827213966046
C            1.69113464566343        2.27811306734723        0.72874418947615
N            1.79733630094522        3.31537452722814        1.20720912609915
C            2.84566790951680        0.27527285591521        0.35654735214727
C           -0.71993967393184        1.33691073081402       -0.33092336391985
C           -0.51493532714463        2.68912958887382       -0.66859647385412
N           -0.47430695902493        3.77479936382562       -1.04383875124006
C           -2.08639606860359        0.91271086744338       -0.25283261390838
N           -3.07979631147316        1.80365726063652       -0.45003653638158
C           -2.30930659626657       -0.41485512667551        0.08949919477841
C           -3.46537594620060       -1.20403744992791        0.32659023357794
N           -4.75636119343929       -0.80130944219960        0.42904026808912
N           -3.15078057924511       -2.51452757323412        0.41990869236944
C           -1.83902051847269       -2.62143943704017        0.26297433726077
C           -1.22447268296301       -1.36481270304804        0.07424556383814
H            2.66018979818312       -2.77700275726572       -1.17052567751989
H            3.66183941821195        0.85847212838131        0.77003368945452
H           -2.84340071820583        2.72330918001162       -0.78987735686643
H           -4.01418809126145        1.46839781850429       -0.60759753496649
H           -5.39268811832805       -1.53336242088082        0.70725864663750
H           -4.94819241107580        0.11365896709407        0.80372280151343
H           -1.35615485979599       -3.57914076969671        0.30261595368899
