31
 energy: -55.452575352622 gnorm: 0.000527720105 xtb: 6.6.1 (8d0f1dd)
N           -3.03763701269064        3.42232420752736       -0.28660929523664
C           -2.15426875943566        2.69512148411867       -0.21637897797096
C           -1.03163300955939        1.84048815911741       -0.14229544237480
C            0.23761458567163        2.38451750567004       -0.09513206291829
C            1.40777704616872        1.60022721456654       -0.01855045950584
C            2.59214991124179        2.31630470323724        0.23728565377229
C            3.85409716912207        1.88003888447877        0.56495135501921
C            4.35184611484150        0.57971315862048        0.49411950101091
C            3.73447377624999       -0.52064990451607       -0.04775642542510
C            2.40712037622762       -0.67790824820250       -0.48139301716094
N            2.16402808932576       -1.73468665265750       -1.27141142388389
C            1.28669083165563        0.16553423449345       -0.15212844197246
C            0.00220420341163       -0.38717225044139       -0.06739225952504
C           -0.46128207865720       -1.73302600867136        0.08460452474367
C            0.28084879637681       -2.88991510474268        0.28662806375276
N            0.86975807025978       -3.86773016711769        0.45497036506620
C           -1.87024748187155       -1.71232331487720        0.16202371575686
N           -2.67520211454013       -2.79375153886493        0.27321249584777
C           -2.31203358042720       -0.36933622923947        0.04257561922410
C           -3.65297055443797        0.00984504606325        0.07884610588337
N           -4.77760201962166        0.24727808486433        0.12144481039459
C           -1.17415219205355        0.44714854729505       -0.06087727840563
H            0.33559847051046        3.46005472116290       -0.07422365598865
H            2.45271471700462        3.39031055786228        0.28236955806598
H            4.55433866388810        2.63932439887849        0.88664927855388
H            5.37686097416460        0.44280360376361        0.81324632864452
H            4.35155503962092       -1.40146141489184       -0.18054637480942
H            1.22932599221484       -1.93838295036552       -1.58372684452586
H            2.86518616279982       -2.44300171211188       -1.40855003909985
H           -2.26917148986674       -3.67795601189494        0.52821527384341
H           -3.64907546139375       -2.64553625352455        0.47702952172451
