20
 energy: -36.090387953855 gnorm: 0.000606539670 xtb: 6.6.1 (8d0f1dd)
C           -2.97942786968143       -0.34394901628143        0.65985148937398
N           -3.26995312579238        0.77624724634419        0.02595039978416
C           -2.33318038724460        1.40682472814361       -0.66103564094044
N           -1.03971922943295        1.36581130471035       -0.48487288304394
C           -0.27080976285942        0.39732254019478       -0.05041536457881
C           -0.81612862711607       -1.00237957806013       -0.08117863471827
C            0.03749229727727       -2.06326651610422       -0.40995716384280
C            1.40547576034534       -1.88672766214375       -0.35154211130384
C            1.93624746627887       -0.65090980425652        0.01484256270082
C            3.24246387536915       -0.15946656421327        0.17298486786680
N            3.24996242815270        1.14941610509292        0.45672084544072
C            1.98582791002358        1.56687232806706        0.46741582181424
C            1.09186245003794        0.50982985599511        0.19656859448131
N           -2.02151530831856       -1.19569516996594        0.39700142008753
H           -3.71178589460954       -0.68412585050955        1.38564775795821
H           -2.68153738455071        2.16630553162752       -1.35342015920821
H           -0.39305253305725       -3.03300037003512       -0.60300582069781
H            2.06538240797350       -2.72233102708810       -0.53573826143964
H            4.16539138690711       -0.70187665710750        0.07868685019776
H            1.74304768469734        2.59055284178994        0.68349004126832
