27
 energy: -46.155079934126 gnorm: 0.000908510099 xtb: 6.6.1 (8d0f1dd)
N            4.41971108215457        0.92162118894321       -0.48100659196646
C            3.26151699174344        0.34228794387357       -0.08388544905209
C            3.30231132239860       -1.03354106820177        0.25139277516597
C            2.19838981427662       -1.84438652544992        0.41614373086495
N            0.91323987762799       -1.60633872588958        0.27332532595043
C            0.33155863746578       -0.39482382811620        0.13247936718474
C            0.96162187455678        0.93831228960392        0.19258396221391
N            0.23449091544866        2.03864359788845        0.36256375669007
C           -1.09211722236255        2.01340193210150        0.32245141924070
C           -1.79030431886737        0.86652232113394        0.03509554408625
C           -3.17422449577480        0.51391910758806       -0.09173379862909
N           -4.20584069212468        1.39398586519540       -0.03347380536075
C           -3.27043269811788       -0.87219224050368       -0.19932233707853
C           -1.98240231330020       -1.42716364061353       -0.15404654095801
N           -1.58980775615065       -2.70904487137588       -0.22182577446729
C           -1.04307738958706       -0.35957598520321       -0.03282828787491
N            2.25300170973244        1.18606179334079       -0.01921158828119
H            4.40539982545746        1.90672807303461       -0.67438632588429
H            5.27829097517298        0.40604002186974       -0.52486670506333
H            4.27874426059510       -1.49600796996867        0.31180376577376
H            2.39960026134044       -2.89018483549643        0.64776130014804
H           -1.57300740276303        2.96597172220129        0.51510730034275
H           -4.00311969261980        2.37106446623971       -0.15299101328401
H           -5.12117903231724        1.08032102701655       -0.30662793071271
H           -4.18639507829665       -1.42616679809951       -0.29782466124220
H           -2.24924037317461       -3.45825819137376       -0.10085570314903
H           -0.60135459661458       -2.83768519793906       -0.01613332525776
