35
 energy: -67.126138859266 gnorm: 0.000512147243 xtb: 6.6.1 (8d0f1dd)
N           -5.48110472824496        0.73563626353016        0.05821608190463
C           -4.33929488910150        0.59065399119497        0.03181789134066
C           -2.94301051754000        0.40957979000512        0.00088857460707
C           -2.50902638200691       -0.88019253184282       -0.38858591519441
N           -3.45654993549022       -1.72403337181120       -0.85329650769218
C           -1.19374036887320       -1.38030376225445       -0.27089349354490
C           -1.05531197071116       -2.72649995253776       -0.67781615553023
N           -1.01146149258773       -3.78620988646741       -1.12345521999440
C            0.01354104339511       -0.72637505073214        0.08148346189113
C            1.10479208625519       -1.54040102477841        0.45282915310614
C            0.89226900997872       -2.83131052176923        0.97031727939058
N            0.83357285898647       -3.84414076808895        1.51270670203998
C            2.45288047913352       -1.09519702725860        0.42326243715743
N            3.46111783090114       -1.91802454391595        0.79354022801787
C            2.66226282541654        0.18452056298095       -0.08062372759982
C            3.81040417821438        0.92692102487278       -0.44786821346441
N            5.10857504350244        0.53200518375484       -0.44201517045483
N            3.47502563196128        2.17767094076002       -0.83346095099607
C            2.16057958699144        2.28747469125291       -0.71789957574585
C            1.55803804563654        1.08807052345379       -0.26267066666033
C            0.22715333428229        0.70637611215546       -0.02528316612889
C           -0.76845735806684        1.68070526420024        0.20271331885485
C           -0.31364614013087        2.99120345016717        0.46662930050942
N           -0.04854480655116        4.07611836582332        0.74315352078512
C           -2.17440253257528        1.54486125344351        0.34172687820219
N           -2.86056901888880        2.62424935584622        0.77947098088403
H           -4.41993123545074       -1.43661192827287       -0.88490487869759
H           -3.22283086256917       -2.67884658280934       -1.06823627408860
H            3.22072780046140       -2.79178301791267        1.23637152260048
H            4.35487069998365       -1.51540733155634        1.01716156520190
H            5.73978401431987        1.19209430301355       -0.87086479984000
H            5.31158059576723       -0.44081409356896       -0.60765363515731
H            1.67922137881850        3.19843718661458       -1.01683976078354
H           -2.38252205500853        3.48672939567466        0.97810382082559
H           -3.86469188720598        2.59752106523247        0.83303571323493
