26
 energy: -48.024561270474 gnorm: 0.000616229330 xtb: 6.6.1 (8d0f1dd)
N           -5.89877245828265        1.41967828132793        0.00327867206390
C           -4.83474243064724        0.98697883367187        0.00089077451120
C           -3.53099630102464        0.45680906800839        0.00070294808538
C           -3.40657049416169       -0.94910664517248        0.00249857278021
N           -2.35508816802016       -1.70993399798581        0.00136066752397
C           -1.05560960658933       -1.34478257628196       -0.00071875986764
C           -0.17589034144779       -2.43166943864510       -0.00189500023341
C            1.20275092453812       -2.29856642231250       -0.00256824897169
C            1.74802025518245       -1.03019107290649       -0.00199199544856
C            3.08537148588001       -0.55417004640375       -0.00238287747005
N            4.21202192906391       -1.28103289866671       -0.00293049839009
C            3.02734916541980        0.87552181410195       -0.00200193394434
C            4.16779370288264        1.68580124814408       -0.00310368055518
N            5.13996411939915        2.29843251722978       -0.00427058723536
C            1.69756896044767        1.27814925411795       -0.00126491125255
C            0.88056619082431        0.12372665703530       -0.00126857139552
C           -0.50844663952609        0.01732147988498       -0.00103840339032
N           -1.17822742739322        1.18920724928951       -0.00194788618548
C           -2.46016745150129        1.37944401833069       -0.00169441847835
H           -4.34054315466599       -1.50772599390233        0.00476605249119
H           -0.62773830089668       -3.41129885914687       -0.00193881546806
H            1.82597743937383       -3.18205739731924       -0.00342592234601
H            4.17573415715653       -2.28458777043325       -0.00371856690879
H            5.10571462273827       -0.81912504965373       -0.00356953836768
H            1.34048217992607        2.28984697947403       -0.00087496840350
H           -2.73992716997599        2.43109892651374       -0.00348036054328
