30
 energy: -50.129279732421 gnorm: 0.000827215478 xtb: 6.6.1 (8d0f1dd)
N            2.64992299023177        2.73381508434328        0.21999756839443
C            2.36568218750428        1.61734871516697        0.11809716661608
C            2.07459297567251        0.26871705997312        0.00440545989725
C            3.07858139517105       -0.73249966762829        0.12302241652820
N            4.42542032524368       -0.46874139840544        0.16228393000447
C            2.47781136254847       -1.98597694119274        0.10695726174547
C            1.09429444340918       -1.80578973649577        0.01533933148125
C            0.04547601222672       -2.71774981334453        0.04677436034512
C           -1.24937685594210       -2.25871204914321        0.02264183622498
C           -1.55954501647500       -0.88804433514545       -0.04328238307146
C           -2.94303139750007       -0.50315661886503       -0.02513999615541
N           -3.86815312649386       -1.34649728539784       -0.53025983457219
N           -3.44672237487814        0.54499434547006        0.59484911227013
C           -2.88770010293737        1.70429778378754        0.83353418753073
C           -1.76751113342149        2.22632441847354        0.21126075060006
C           -0.76442484291052        1.47999242905299       -0.41147952562612
N            0.07243903224373        2.11698303187762       -1.24740430671888
C           -0.50688720351262        0.07802072810170       -0.15062221499886
C            0.81282898173970       -0.38661657765103       -0.08158382875348
H            5.00900470101962       -1.19363588148045        0.54763959441085
H            4.68221441161853        0.46935761997993        0.42886931845247
H            2.98810940959946       -2.92760792043274        0.18737567360606
H            0.24942759046398       -3.77624708474882        0.12047097791519
H           -2.05652844003030       -2.97060208297447        0.12069237776911
H           -3.60242939271516       -2.18786713299889       -1.00652190300987
H           -4.83844776626704       -1.10644024077148       -0.42919356960252
H           -3.47670891271347        2.34983664974287        1.47593628151037
H           -1.64587833113531        3.30149463984302        0.20838243291414
H            0.09284452858992        3.12346470337011       -1.26595905658414
H            0.89052152644988        1.63959306139330       -1.58940734922354
