30
 energy: -50.119204721620 gnorm: 0.000573258503 xtb: 6.6.1 (8d0f1dd)
N           -5.28963345370091       -0.62968208562304        0.10962142551408
C           -4.15800493623436       -0.41571735429588        0.04620896037973
C           -2.78149212652396       -0.15020886751343       -0.00548932959423
C           -2.40871886776291        1.21145234697393       -0.02185249140917
N           -3.41778674317667        2.12462173703900       -0.05051201154166
C           -1.11421983877443        1.73178320669819       -0.03066505004706
C            0.15110731566697        1.14929923528427       -0.02309254701111
N            1.13146601873701        2.07578430756566       -0.02050081336754
C            2.39839518797801        1.71922634527909       -0.00944639139214
C            2.80162867491733        0.39956566903842       -0.00256567417046
C            4.06613014777052       -0.24407894547288        0.00304920055029
N            5.28040868989084        0.37200709863836        0.06877042912586
C            3.83367113532075       -1.62889025413548       -0.00046454266678
C            2.46916499873625       -1.86559549082155       -0.01068041026022
C            1.78818187291948       -0.62854192020636       -0.01201640147846
C            0.42971912106463       -0.28141901594670       -0.02081763815238
C           -0.53715963115413       -1.29622242819400       -0.03054923277084
C           -1.92247908516375       -1.28406474473047       -0.02854210505679
N           -2.54114288354501       -2.50117412192234       -0.08198973122674
H           -4.37391396722318        1.82863803561855        0.04287960236833
H           -3.20393476449127        3.10105504207872        0.03863557195719
H           -1.06253104219597        2.81474495468416       -0.03873203798583
H            3.10629619686199        2.54232976285904       -0.00450792552451
H            5.32207297801330        1.35080973891100       -0.15798468906289
H            6.09521366417590       -0.17432567308642       -0.15385163628016
H            4.60204817036672       -2.38130040535954        0.00223772132160
H            2.02192079180364       -2.84312117047618       -0.01898951343064
H           -0.11616963962539       -2.29514462791528       -0.04031778889637
H           -1.99619896251423       -3.33464722056325        0.04444244703954
H           -3.53609286503703       -2.56270281950577        0.04748863696927
