30
 energy: -54.919184758175 gnorm: 0.000823408099 xtb: 6.6.1 (8d0f1dd)
N            4.78234727098469       -1.61203962849325       -0.26412967243511
C            3.83487638333496       -0.96285283325454       -0.19024226698265
C            2.68500369406001       -0.15279024465695       -0.07747792131184
C            2.94761922882866        1.18513776652237        0.28591957956999
N            4.20960734330210        1.51254917385975        0.63398604972503
C            2.01178839998434        2.23725056386657        0.22250012497381
C            0.67454205168599        2.15747071609989       -0.02495164051028
C           -0.19783572619797        1.05145830425048       -0.09386396191171
C            0.13190870698481       -0.35315910957578       -0.06499528817211
C            1.46004825623812       -0.81700433071226       -0.35179629925232
N            1.58175354812456       -2.02162993185517       -0.93439643382341
C           -0.91305954352837       -1.29892658649835        0.12135990749770
N           -0.62716463507242       -2.66118651323964        0.30580944479683
C           -2.26820913125220       -0.92700656956524        0.11850314631456
C           -3.26085031574167       -1.90092991985510        0.34156486863758
N           -4.02888199599502       -2.73116481130682        0.54133420915428
C           -2.61339862954435        0.40951844066443       -0.07944029722553
N           -3.78914569517622        1.04487667470709       -0.13766431469461
C           -3.43704770733804        2.33110396747935       -0.24468456945405
N           -2.13181684966064        2.60717232641995       -0.24843988602738
C           -1.55297611024495        1.39349683402203       -0.15946933641495
H            4.94498661286857        0.82564175139058        0.62791251680168
H            4.44653000683679        2.47181721333575        0.81540966320154
H            2.42560199387692        3.22685549145222        0.36949752503545
H            0.13617359469843        3.09517315839303       -0.09775380653478
H            0.75733743331479       -2.58005072657962       -1.10193396465901
H            2.49105421056248       -2.39606539104055       -1.15021953100892
H            0.13120026059741       -2.85238349718522        0.94687115241247
H           -1.45487244132673       -3.19484418782976        0.54351633540310
H           -4.17545370520477        3.10818065428440       -0.31792551280358
