31
 energy: -53.853864092830 gnorm: 0.000415618588 xtb: 6.6.1 (8d0f1dd)
N           -0.78452918907312       -4.31274958773363        0.34514113259202
C           -0.37988642157077       -3.23815664309305        0.26339609201419
C            0.16317991995685       -1.94657670775162        0.16700517600936
C            1.55455262951196       -1.84088911676713        0.20432227908692
C            2.11676681226043       -0.59670984292807        0.06697370226150
C            3.45500426047645       -0.11252617467534       -0.00574240590867
N            4.58769572744626       -0.84982267231658        0.03283166115796
N            3.48659286776169        1.20937048472033       -0.20540374355572
C            2.20694818449731        1.63507063582444       -0.24940591924892
N            1.95690004383226        2.95978104085372       -0.46345418971016
C            1.28368787490463        0.57567195990726       -0.05663484452247
C           -0.11494980438391        0.51156221851716        0.03423847601871
C           -0.85041180656152        1.69350371320851        0.20007287949152
C           -2.22718509079153        1.91777708606901        0.23271268563975
N           -2.63946434752605        3.19829678512168        0.47704203744001
N           -3.24626514997427        1.10275914312356       -0.02796431266820
C           -3.15918271718676       -0.20359485954746       -0.23091548786437
N           -4.34642102657209       -0.76763148713080       -0.57532308173162
C           -2.06365471591594       -1.07431257240992       -0.10183871913593
C           -0.70240467850023       -0.81699305238372        0.04069730864965
H            2.15130637846784       -2.73635434512986        0.31246234269557
H            5.45485650282572       -0.34869680478883        0.12035306060447
H            4.54301870780592       -1.78558344434792        0.39533788086048
H            2.77918175068133        3.47234404946038       -0.74763900316151
H            1.11738959379096        3.18106291655384       -0.97716974072483
H           -0.25580747061938        2.57544393982436        0.39602636346011
H           -3.62552266383118        3.32505097688544        0.62677357635086
H           -2.00928299161453        3.84803529205534        0.91236004272318
H           -4.45500637699998       -1.76533854197222       -0.58393157849241
H           -5.16354963073127       -0.18412489806076       -0.54851703476915
H           -2.32747340546194       -2.12442044828725       -0.16146673086341
