34
 energy: -57.801500126182 gnorm: 0.000761077182 xtb: 6.6.1 (8d0f1dd)
N           -0.65046994666218        4.55098025734855       -0.72875300853179
C           -0.27709403336880        3.47910698488952       -0.53452170702568
C            0.22168418160043        2.18768381583000       -0.30554546169124
C            1.60709977497982        2.02515872656517       -0.31428922792574
C            2.12900762867611        0.79123412745644       -0.01979310863407
C            3.47364260453624        0.34607092631630        0.13681872192133
N            4.57836856272782        1.12962995720384        0.03501956737388
C            3.44062497158821       -0.99846868719638        0.49758284257277
C            2.11451552376671       -1.44237840309837        0.54020548239945
N            1.76172405193080       -2.64869645792905        1.04455497304991
C            1.25590017430262       -0.34623978960259        0.17718430096671
C           -0.12031458949251       -0.23249457291353       -0.00237112305731
C           -0.90989949087587       -1.40128159002970       -0.27996270696326
C           -0.22936086063441       -2.43307439908048       -0.93498841180699
N            0.27653310455687       -3.29342590060737       -1.51784965011216
C           -2.27760364414486       -1.65314006614077       -0.03774648708044
N           -2.70138820751944       -2.95193746308017       -0.17818600859075
C           -3.22880312470606       -0.74096596824090        0.40770089337376
C           -3.12730826156629        0.64816745600708        0.46051775675202
N           -4.24016552983049        1.33116666410565        0.86498205087530
C           -2.01605335476783        1.43125410999199        0.12961539211176
C           -0.67629360348519        1.10367591923162       -0.06423426575419
H            2.23569860833905        2.88406125213172       -0.50666818451826
H            5.47505781345926        0.67820406282581       -0.02248294314322
H            4.48920484458768        2.01822456101065       -0.42689028846311
H            4.29779801602209       -1.60533105882399        0.72578761325038
H            0.83333899650720       -3.00355754833944        0.89971913373763
H            2.49004743976558       -3.33687313428695        1.13475881453115
H           -2.11080169044387       -3.58858908761605       -0.68871336044581
H           -3.69110681653147       -3.11777918914885       -0.24429305418196
H           -4.20117782317760       -1.15635920694903        0.64575438046115
H           -4.26893227431177        2.32805254056694        0.74360163478364
H           -5.11789147415883        0.84870212191835        0.93697244608764
H           -2.22009126156979        2.49641287898238        0.11250445087736
