23
 energy: -39.266767184653 gnorm: 0.000211338561 xtb: 6.6.1 (8d0f1dd)
N           -3.14198933164925       -2.00956883831841        0.57304350119165
C           -2.43043378476654       -0.96101031258171        0.11074280529817
C           -1.03818427191071       -1.14537269614771       -0.08579798260813
C           -0.05536441312241       -0.17568684201055       -0.18719077250452
C           -0.34239486528472        1.26293079621125       -0.03575901438499
C            0.68933370124135        2.13460016235892        0.33394638110957
C            2.01244426543650        1.73698282319439        0.39445890560689
C            2.33990291289006        0.42817976623935        0.08013787550811
C            3.54445602134496       -0.30359911088597        0.00013912422775
N            3.32346880411429       -1.57037341750576       -0.33869288647924
C            1.99621164937392       -1.72446656389616       -0.47510422264485
C            1.30701033681488       -0.53071230076408       -0.22706096901009
N           -1.51253281871162        1.82461548780704       -0.32979984590243
C           -2.66824629768557        1.27430169621908       -0.55300246496597
N           -3.15988747785297        0.10408868131968       -0.19575913543218
H           -2.71051607402784       -2.89482116472716        0.76538729794756
H           -4.13620099450753       -1.90281152192550        0.67215988909846
H           -0.68914828016331       -2.16931558240862       -0.02527143117798
H            0.41707294308460        3.16435065538882        0.50613851760904
H            2.78344351919977        2.45337260220868        0.64091549521581
H            4.54188716297468        0.05166803688589        0.18407240340983
H            1.59801374451157       -2.67808556617013       -0.77270563393155
H           -3.40286214680337        1.93787157650886       -1.00371778798086
