31
 energy: -53.851187376932 gnorm: 0.000458852817 xtb: 6.6.1 (8d0f1dd)
N            5.69163266490974       -0.80919003513820       -0.52812025288824
C            4.56073035656826       -0.63176319504298       -0.39020780154639
C            3.19562819663068       -0.37798207131635       -0.21726142350893
C            2.29768725877921       -1.42114317580518       -0.44997287028148
C            0.93174094424695       -1.44312892444029       -0.29381744399798
C            0.03472570577693       -0.38625223689112       -0.02379780143407
C            0.42262102433773        1.02060777676242       -0.00864595343955
C           -0.55935096453529        2.00181965480963       -0.13288215400189
C           -1.92895603771195        1.73759521079567       -0.15912559085336
N           -2.83552297027292        2.75705275153241       -0.29004171744957
C           -2.32372761495332        0.40533517284428       -0.03757333903708
C           -3.56935691450985       -0.26104139742169        0.00485973615309
N           -4.81811953854493        0.28676065620676       -0.10875428197562
N           -3.42113681764622       -1.57898268196999        0.22819975326377
C           -2.10501042113609       -1.82136346938768        0.28639915309017
N           -1.66008058172104       -3.08420803583538        0.51100829251238
C           -1.33449178556927       -0.63235307168065        0.08660193790558
N            1.65313560907120        1.50245218111603        0.21072677849237
C            2.82517256631784        0.93235113480580        0.24043341015847
N            3.81968447028615        1.71310931478617        0.73246128473275
H            2.75540069819331       -2.35377481247804       -0.76253054187388
H            0.45893221935681       -2.39004787043060       -0.51700712731704
H           -0.22148238614408        3.02737452577893       -0.15808637928276
H           -3.74692491660863        2.60424193707521        0.11005541822930
H           -2.46912789180116        3.68852485852040       -0.16964831326360
H           -5.54504202268453       -0.41008862100292       -0.18380391661613
H           -4.90906984089225        1.05142757982928       -0.76019054880466
H           -2.37552885796421       -3.72980482851036        0.80758282951361
H           -0.75315133197417       -3.19427723114179        0.93501030754874
H            3.59991171031232        2.67019750646194        0.94430332089032
H            4.78025995038037        1.43267306574702        0.63529461628504
