24
 energy: -43.784454378484 gnorm: 0.000902021744 xtb: 6.6.1 (8d0f1dd)
N            3.02061719622892       -2.82803418835257       -0.18711457067158
C            2.74465915796683       -1.71405042095000       -0.09793817165730
C            2.39975563387076       -0.36935671602786       -0.00177732646370
C            3.28392835093376        0.73012410600357        0.09725762258573
N            2.66873546001425        1.89992883113509        0.19369028106516
C            1.35440781685466        1.63372403623659        0.18553837287234
N            0.36899710149260        2.50186701633613        0.29661052614021
C           -0.85844135540541        2.05447125336692        0.19321825381416
C           -1.24450571825674        0.70851546591678       -0.00211027951438
C           -2.63974491654186        0.41964601923752       -0.19103426038612
N           -3.43249784053897        1.40374377998670       -0.64970529414573
C           -3.27153726170044       -0.76818036644991        0.22485004639877
C           -2.63699610116046       -1.95728459978537        0.51065724700393
N           -1.46612538849811       -2.33922786251095        0.03938226471727
C           -0.45219401016723       -1.65044998910206       -0.34562235680438
C           -0.19619627407076       -0.27280990393109       -0.05844329030203
C            1.11011802622985        0.19710712928507        0.03843777332259
H            4.35808108399621        0.67806590516882        0.09008095630923
H           -1.61686294343503        2.81229582734878        0.34831780666784
H           -4.42823472778965        1.27054573804797       -0.69542450738947
H           -3.05203143525000        2.29351640105117       -0.92014157905901
H           -4.34796689076084       -0.72709130228708        0.33722590474878
H           -3.18195174970859       -2.73980830264457        1.02583406439096
H            0.33173983849634       -2.21296410757956       -0.84364903904329
