30
 energy: -55.722719747458 gnorm: 0.000892593920 xtb: 6.6.1 (8d0f1dd)
N           -5.65446075589335        0.24659328493418       -0.73691046923531
C           -4.54270862037911        0.44627467995118       -0.52365527262611
C           -3.18176613178695        0.64580943988266       -0.27363998699433
C           -2.55509223198543        1.85090835197146        0.04571787342120
C           -1.18067911469111        1.61254203565738        0.15922377410485
C           -0.13390683148986        2.47513727196740        0.42353853261641
C            1.16481515401066        1.98930849613521        0.38173347542048
C            2.22282786440945        2.89999983200309        0.56555521486986
N            3.07501996594860        3.65584932996350        0.71609737575346
C            1.45687620617257        0.61302972009297        0.12803916521531
C            2.77519983755825        0.28876203962031       -0.16972918285942
C            3.34825620504174       -0.94703780271192       -0.53522688438466
N            4.54385393805646       -0.92469118625880       -1.15834478398020
N            2.90849175964198       -2.17265936586779       -0.25831890160891
C            1.74767189884807       -2.46327389374764        0.27110585197769
C            0.57746588453557       -1.71620851083974        0.39846105532486
C           -0.47043412269624       -2.43211045149521        1.00686631212514
N           -1.29154254377797       -3.04345849981135        1.53176048304996
C            0.34569507023456       -0.32958944988198        0.11158918908277
C           -0.93619141247103        0.19174924958363       -0.02854913849809
C           -2.21079183154060       -0.39332228657652       -0.33515145766077
N           -2.50525259517969       -1.61835698726239       -0.80010699328165
H           -3.04508776094511        2.79871965460758        0.16881078684196
H           -0.31197920924481        3.52358466974040        0.61229356037595
H            3.45441172677649        1.13189534375689       -0.22656359634688
H            4.99903026840014       -1.80205787332655       -1.34107506313544
H            5.03469519050476       -0.06371500358760       -1.31782910826275
H            1.68482182918996       -3.49649176150986        0.60444593946792
H           -3.47982712563804       -1.84126574227757       -0.92948417351062
H           -1.86628744560682       -2.38820777151205       -0.70447455596804
