25
 energy: -42.721305418945 gnorm: 0.000889919285 xtb: 6.6.1 (8d0f1dd)
N           -2.46952783522481        2.68313367278192       -0.52141337313602
C           -1.96306129387995        1.46914096193182       -0.20505708914121
C           -0.56829153790775        1.39491108405006        0.03195535064888
C            0.23878732686406        0.27361176031108        0.09416042117598
C           -0.26027402192760       -1.09338104576887       -0.13923661741780
C            0.65482813838363       -2.11417730602653       -0.45449337750613
C            2.01967458477537       -1.93305171312147       -0.41154033368826
C            2.52683629875092       -0.69174985542970       -0.04930483095301
C            3.82046492618364       -0.15986302710974        0.12053064998696
N            3.77826084799397        1.12404572577851        0.47642178242438
C            2.48596008669448        1.47773839705962        0.53419474194500
C            1.63734226821293        0.40625194537133        0.21669255872484
N           -1.52091231907468       -1.47803113145387       -0.01468427558828
C           -2.60855500958132       -0.75932725467852        0.18982821728072
N           -3.67161408584467       -1.46161305534168        0.63867596828548
N           -2.87230480498598        0.51933346502451       -0.08520082847910
H           -1.87077133658439        3.47114407982487       -0.68234409841466
H           -3.45122849638991        2.75157040098748       -0.72111014026535
H           -0.05591912129476        2.34858522367882        0.06900703781483
H            0.23495169389503       -3.08210562955091       -0.68094149490148
H            2.68574146338062       -2.75728978527106       -0.62604819554243
H            4.76143122081411       -0.66319435722647       -0.00960803751910
H            2.21995058521363        2.47785020529584        0.82805664723292
H           -4.57095544850116       -1.01725182976014        0.66427735988052
H           -3.59084313176526       -2.45918353785690        0.71470437315234
