25
 energy: -42.697378373186 gnorm: 0.000502095193 xtb: 6.6.1 (8d0f1dd)
N            2.65467822421022        1.64427736189960        0.72266328221194
C            2.10295345093809        0.50909464992932        0.25850474453536
C            3.01890929566135       -0.53657812657595       -0.03913191241053
C            2.74659590296004       -1.84109275036302       -0.34902022722330
N            1.64066669531307       -2.53213211895493       -0.08465538415942
C            0.47033251820537       -2.06256746433495        0.18149943502290
C           -0.06131047193907       -0.75155048961377        0.00790785145246
C            0.70457967397049        0.47871186408935       -0.00547672627133
C           -0.04064636977944        1.69207390789376       -0.16885829445894
N            0.61821346640335        2.93145819005721       -0.31864344895146
N           -1.34878328468798        1.78721959101947       -0.19964231787697
C           -2.07225936831809        0.67754870877142       -0.07439145502334
C           -3.44027822762715        0.43634262471156       -0.00603446521771
C           -3.55455440664591       -0.95624247628849        0.05915694184036
N           -2.38428406976199       -1.60383096514080        0.04360561722431
C           -1.44533943891967       -0.63983289682601       -0.01600227220866
H            3.64175756217887        1.68854102043396        0.90548221775943
H            2.06622855852393        2.45152933901928        0.87967529249812
H            4.06056650080721       -0.23517123903987       -0.05639912599322
H            3.55360949739804       -2.45689526207666       -0.73198462316635
H           -0.26516230358359       -2.79894956187518        0.49160033990840
H           -0.08567420966479        3.64580644337447       -0.47105704526988
H            1.29547205272171        2.93776532325773       -1.07242447089102
H           -4.23728811237416        1.15233116365994       -0.00946107537512
H           -4.46890598759006       -1.52155379592776        0.11805973044385
