28
 energy: -47.480712395499 gnorm: 0.000480035342 xtb: 6.6.1 (8d0f1dd)
N           -5.04647952702930       -1.40528425122545        0.63599642267323
C           -4.01561429796738       -0.92661950233326        0.46960258486102
C           -2.76964575620842       -0.31866470472126        0.27085590464259
C           -2.57198883830158        1.06253966480389        0.06886733586308
C           -1.20248192202253        1.27700033849210       -0.04037426493901
C           -0.45059544462061        2.45185885170366       -0.19978932435479
N           -1.04013013311009        3.65265158161979       -0.36516269074032
C            0.94152340088898        2.34017073613755       -0.13295784279490
C            1.62491845907178        1.13586714949962        0.00559995027600
C            3.02153622972516        1.24388989593569        0.21003769202541
C            4.00426640657103        0.30143217943161        0.37255654644060
C            3.91397128980342       -1.08373699486696        0.22761381477347
C            2.79382605599921       -1.80539045957417       -0.11182573995377
C            1.46321090485282       -1.38088777634612       -0.24041714978872
C            0.64973268102177       -2.44456593730112       -0.70938021012282
N            0.12725610082108       -3.35829726754784       -1.16812943571736
C            0.86775066669840       -0.11577274396100       -0.03226725395069
C           -0.53010595304711       -0.00159236998296        0.05780233145941
C           -1.53333969888760       -0.96875696898363        0.26187206756755
H           -3.35648093315408        1.79658837776292        0.03370270846546
H           -0.48934795253319        4.48843634030049       -0.44373845587503
H           -2.04077622651540        3.72416765560843       -0.37951872731047
H            1.51856016563512        3.25414100373157       -0.17185898225162
H            3.36138762223348        2.27003364472018        0.29634434410632
H            4.99199326724059        0.68422310278342        0.59784945370590
H            4.83208588205197       -1.64277732811656        0.34793178820012
H            2.94297310964565       -2.86489085216125       -0.28825569142193
H           -1.40140543236350       -2.01831622440903        0.43629588736131
