30
 energy: -54.130549934309 gnorm: 0.000499125614 xtb: 6.6.1 (8d0f1dd)
N            2.59081477616131        3.59803407878024       -0.33001011926625
C            1.97391357503189        2.63439855171355       -0.21805231471439
C            1.14757147155429        1.50289085785072       -0.10038507867565
C           -0.24917420787935        1.66749400386577       -0.06280125317374
N           -0.77230185973833        2.97519787559189       -0.06548063189647
C           -1.10720336390607        0.55929336701197        0.00525831570298
C           -2.52563969094319        0.75547005638226        0.23118217030081
N           -2.92090874074306        1.75841310026411        1.02717841533007
N           -3.48848289614211        0.07094725611374       -0.35500999063001
C           -3.39369597869667       -1.14214330145226       -0.84136735539772
N           -2.60038703713792       -2.09459410697953       -0.44145425849211
C           -1.43189368434706       -1.92456939400637        0.16915622820919
N           -0.98770757445791       -2.98805425123815        0.85353242078593
C           -0.57115787165567       -0.78204650338955        0.02910236660864
C            0.82001747195030       -0.94709128975726        0.02070905794174
C            1.70185985608192       -2.03275632366740       -0.00919217772876
C            2.98853611719996       -1.47385149032119       -0.07374237048207
N            4.17203344440702       -2.15105480130345       -0.05089148717733
N            2.98129897721313       -0.12485966501680       -0.07842580829254
C            1.69631606476229        0.22287015896491       -0.04407411906761
H           -0.04779040395302        3.66394687633220       -0.23215391726925
H           -1.54647134651233        3.10640283932945       -0.70406768245610
H           -3.90663828853514        1.92979348149350        1.13116659452011
H           -2.24452246684797        2.43620662014633        1.34388295077989
H           -4.17339000634625       -1.43229583200542       -1.53748992856274
H           -1.55699669718630       -3.81561393234844        0.88854942659913
H           -0.08490951294527       -2.96146287440739        1.29476018927143
H            1.49091527919497       -3.08468117822225       -0.05409252884514
H            4.17287115865090       -3.09596660800577       -0.39708127485909
H            4.97818325796456       -1.59269114871922       -0.27981760716320
