31
 energy: -53.857018441951 gnorm: 0.000762940399 xtb: 6.6.1 (8d0f1dd)
N           -0.06012658580147       -3.95826687990856        0.54227051169932
C           -0.21318683892396       -2.83178508163144        0.36330352017654
C           -0.48787398652277       -1.46731772878661        0.17841434498161
C           -1.83972829819776       -1.04718671111091        0.19076053623246
N           -2.83296070414509       -1.95722953156165        0.38577028150878
C           -2.09906320675854        0.29741778921905       -0.06133609422866
C           -3.30928349319141        1.02037662936281       -0.19227252030473
N           -4.58673128861278        0.49068943638253       -0.16738476301567
C           -2.98436419614466        2.37808993894672       -0.32382942452494
C           -1.60749009397628        2.51895758031667       -0.29693769450018
C           -1.01909079456217        1.24563365989076       -0.15027578665263
C            0.32854037998132        0.85749026957490       -0.07140045194899
C            1.33477387981256        1.80747258845401        0.07819348485956
C            2.71994748072806        1.62443705640722        0.23651953952081
N            3.45649933294205        2.72255207140427        0.55781295039613
N            3.45811276416542        0.54038989157744        0.03876081470397
C            2.97492544584758       -0.65109347813306       -0.30365513615895
N            3.90425882342191       -1.52048512741518       -0.76259304405966
N            1.76569231907423       -1.17325195795891       -0.19862106333575
C            0.59245575217929       -0.58617688141248       -0.02846685149624
H           -2.55556760562239       -2.87746956532618        0.69257985857106
H           -3.71666444478360       -1.61383119301019        0.72323171433028
H           -4.69140277191227       -0.39204867823903       -0.64757790464162
H           -5.30187441911696        1.15619150645356       -0.42585758298375
H           -3.69888510055454        3.17335707877485       -0.44202429008767
H           -1.08413169127317        3.45147139245851       -0.40482565743139
H            1.00028041265438        2.83331835140026        0.16746902646956
H            4.42846861461991        2.57776045539069        0.76620928188264
H            3.00792572954519        3.55874907798143        0.88338535473182
H            3.63707292891920       -2.48433752348654       -0.85654649615246
H            4.87308929690041       -1.26442942411174       -0.70539953204132
