30
 energy: -54.932963774098 gnorm: 0.000681221344 xtb: 6.6.1 (8d0f1dd)
N            4.49160146961725        2.48084297807135        0.15318953886043
C            3.58995317957589        1.76743184223623        0.10592970322058
C            2.55040158837453        0.84198238903910        0.05344208883013
C            2.72743494640014       -0.55744791099421        0.09353892350694
N            3.91959501285628       -1.20027350877801        0.12647320093916
C            1.45992273714292       -1.18966816217229        0.02348537484103
C            1.30178817428430       -2.56174706576668        0.15302221411674
N            1.19567196929751       -3.70672897547696        0.25982788198872
C            0.46376423753279       -0.17701287618346       -0.05787480749258
C            1.16512876055971        1.09697957088716        0.00526847934454
N            0.54935081015782        2.26859129816886        0.04554453767259
C           -0.76041141159446        2.26044217332207        0.03752342850517
C           -1.56607911982028        1.10881975346805       -0.04759461729112
C           -2.99474746404920        1.26428244301524       -0.04902481105162
N           -3.53494701410338        2.36250646774037       -0.60361085901988
N           -3.84254293214652        0.47797119550367        0.58400243870343
C           -3.73771866258316       -0.80099087666945        0.83944109535108
C           -2.88333516277338       -1.70744789057924        0.23367535634489
C           -1.66925177383643       -1.39848924743528       -0.38386774203188
N           -1.09969379947971       -2.31725066071208       -1.17359807984267
C           -0.93156389529332       -0.17135454149590       -0.13971569594050
H            4.74192949551661       -0.65999541786096        0.33601911083765
H            3.93294585974311       -2.18081374253424        0.35115932484219
H           -1.22180769551675        3.23284773361383        0.15638912182288
H           -2.95767122764991        3.07778583168291       -1.00822386394995
H           -4.52144310978077        2.52136119975688       -0.48823274871696
H           -4.51717221110402       -1.18084150482067        1.49109667213954
H           -3.16287781075929       -2.75245162335866        0.25546829294179
H           -0.16245824454114       -2.18079824307479       -1.51596123229029
H           -1.46715704282816       -3.25409158109367       -1.20695044458241
