26
 energy: -47.231289325056 gnorm: 0.000816744358 xtb: 6.6.1 (8d0f1dd)
N            4.03122343296524       -2.40072367390983        0.26614339489980
C            3.22286168900004       -1.59002275560986        0.17670291220953
C            2.25517897142810       -0.56319334157974        0.07345490811914
C            0.94058315636665       -0.97227381576442        0.07731983583892
C           -0.26482519081686       -0.25343786139903        0.03671327617780
C           -0.42744712479549        1.19520180683717        0.03088616264465
C            0.61913160248917        2.09542062457701       -0.11713612289543
C            1.99312455078143        1.92218708036902       -0.17741393021103
C            2.76887284774645        0.76900466071263       -0.06343253568264
N            4.10900352615901        0.90436477576769       -0.10035837884723
C           -1.77513948296960        1.70980126244585        0.10974274894343
N           -2.00803475859622        3.05951210653978        0.20475149597373
N           -2.87366067726236        0.98467593059349        0.03875520783455
C           -2.74124331263772       -0.33092350100431       -0.04957167369528
N           -3.68571345117421       -1.26743395349750       -0.12898326323359
C           -2.98703596980843       -2.41231454604725       -0.11954679074076
N           -1.65964352061888       -2.32565586518362       -0.04367947101949
C           -1.43839660663072       -0.99625193219892       -0.00446094583103
H            0.77735644862485       -2.04464160552082        0.12622773466974
H            0.31678112052134        3.12907771541798       -0.23101230129063
H            2.56614712564742        2.83186361633926       -0.31637193180486
H            4.70733574579344        0.09721041979180       -0.03547240341417
H            4.52794447637438        1.81009950445631       -0.21869348009358
H           -2.98941391832685        3.26623521961926        0.31878646419443
H           -1.38607637992911        3.62992972777290        0.75160083628336
H           -3.48176934312897       -3.36514001472504       -0.17150912453022
