38
 energy: -70.284868616867 gnorm: 0.000762616324 xtb: 6.6.1 (8d0f1dd)
N            4.92578424054462        2.54696724983083        0.44573872828607
C            4.05740779918630        1.80865732083175        0.28517015765251
C            2.99205176141232        0.90689449359984        0.10514585398478
C            3.26063971977693       -0.42923175626587        0.46253896597111
N            4.38163312972823       -0.69838580262167        1.16335216663840
C            2.50039333222288       -1.51604173600641       -0.02663724542502
C            3.14183870523730       -2.76849271933395       -0.01551386943686
N            3.66724800395344       -3.79228891236718       -0.00438902946124
C            1.19711226010131       -1.48568628182722       -0.55640136790090
N            0.80841465321442       -2.54509162326348       -1.28325642618123
C            0.20201208286971       -0.47642454586188       -0.29431317985245
C            0.48619395788015        0.93310491746059       -0.27638404995002
C            1.81242021362189        1.45762565753749       -0.45407125677388
N            1.95838089582289        2.61669663168125       -1.11783436901147
C           -0.58530224540589        1.85494077499703       -0.14206298668353
N           -0.35004984296691        3.24392469788896       -0.08610335811650
C           -1.91217282384633        1.41731715115566       -0.05714109211245
C           -2.93891287240737        2.37176324351633        0.08510164221225
N           -3.72603760897619        3.19990057728951        0.20633129246904
C           -2.20454140181874        0.05208026053162       -0.04946808074288
C           -3.40628066569420       -0.64353995959892        0.10044475544341
C           -4.69661529539478       -0.14163759634562        0.23436835317668
N           -5.78936720139433        0.19977722617747        0.35751808606927
C           -3.08105922515158       -2.03336467163069        0.16251174132587
N           -4.00389608216726       -3.02673220197708        0.28230022227717
C           -1.70736055040455       -2.18816153676317        0.00509893515478
C           -1.12384542212740       -0.91377349239342       -0.14407352827049
H            5.02742569670943        0.04090432069637        1.38538218087244
H            4.67725691726794       -1.65204208355237        1.28976703169593
H           -0.13453020569574       -2.58472867788668       -1.63335503314548
H            1.41936894944043       -3.33593565291404       -1.40596524421790
H            1.13392597594875        3.13567560371427       -1.38714417101197
H            2.85820180032089        3.06865446952874       -1.14892683677653
H            0.35077488105264        3.51631957548489        0.59283634592546
H           -1.21096578205522        3.75559058376793        0.07420849458987
H           -3.68947915588362       -3.93560576898725        0.57677396524076
H           -4.93270489680525       -2.75868803798897        0.56412151485728
H           -1.20467541531691       -3.13532020990730        0.08257090832702
