28
 energy: -50.684119499220 gnorm: 0.000339130392 xtb: 6.6.1 (8d0f1dd)
N            5.55350104972534       -0.70466191333304       -0.42115127262985
C            4.41168446366414       -0.56552582547152       -0.37826137330957
C            3.02777456166424       -0.35368216491048       -0.31545444861913
C            2.15918044255296       -1.32177437315404       -0.83878784237885
N            0.88263095031221       -1.46197823299046       -0.63298186950122
C           -0.01949234499006       -0.58382552296674       -0.22631015345511
C            0.22280501075317        0.89059644436104       -0.23845617890729
N            1.37322700690562        1.38907047228275        0.15551092816263
C            2.55274865507582        0.83110025853222        0.32733182962612
N            3.40187551802211        1.51950291032717        1.12017522767922
N           -0.75228297587320        1.73980484456724       -0.50568309898448
C           -2.02279053033459        1.34348737626359       -0.43338112917015
N           -2.95579117295044        2.26403581736590       -0.78925434175449
C           -2.35699022498622        0.07532288697916        0.06220260383374
C           -3.57403501395738       -0.56994084157163        0.34917134385460
N           -4.81733598520835        0.00989780287655        0.37988865737274
C           -3.29977728529101       -1.94426591780859        0.54976027989892
C           -1.95073439138855       -2.16724662138550        0.39762009636383
C           -1.32145566258003       -0.93112477313207        0.10624127038330
H            2.60637793071182       -2.13681556060580       -1.40138204933006
H            4.37156161217460        1.25786842205030        1.17145229309176
H            3.10783774216278        2.41983707081355        1.45695824637508
H           -3.87066931759853        1.93615593345657       -1.04952917725018
H           -2.59817109086682        3.07561233582854       -1.26785612672199
H           -4.85088329640056        0.97635701410468        0.66685524474644
H           -5.54722774332326       -0.56291396707113        0.77603990324964
H           -4.04326608906066       -2.68287299143636        0.79011036486559
H           -1.44182190371612       -3.10784906397206        0.48812377771232
