31
 energy: -53.846806144037 gnorm: 0.000309388014 xtb: 6.6.1 (8d0f1dd)
N            1.57274488870214        2.79598439220667        1.16971812026643
C            1.59990101234069        1.73520556508038        0.70729942376687
C            1.70477405960167        0.45048381253561        0.18086900753422
C            3.05441219154108        0.02301716114589       -0.01496605676243
N            4.02991737594536        0.95432745700611        0.14386108268206
N            3.53353293487126       -1.14701654858744       -0.39263400177616
C            2.83959964906527       -2.27636707153010       -0.46997370192835
C            1.52787168118852       -2.56606874883723       -0.21256788379771
C            0.41292823360892       -1.70968605606029        0.01003249776389
C           -0.81509103052212       -2.33583164475190        0.18985511836563
C           -2.03464296434613       -1.65662465161034        0.25468985063314
N           -3.20677369205982       -2.33906832722582        0.46174848963718
C           -1.99296998074840       -0.27916841276740        0.08134759611257
C           -3.00001276473095        0.71106915973777       -0.03524334416490
N           -4.34755205340241        0.55287579360319        0.13093025193634
N           -2.48688752383975        1.88970185198138       -0.39716331196831
C           -1.14981673071849        1.74814768099579       -0.46333893487154
N           -0.44571120584378        2.77524168438729       -0.98039730286189
C           -0.74142789940707        0.40971303987297       -0.12470349920643
C            0.48273544833974       -0.26072581958683       -0.01881870124820
H            3.83589078847657        1.85504525124340        0.54449264067453
H            4.97818042120850        0.62809440247134        0.08013339699255
H            3.47530447810140       -3.11513027176797       -0.74353369472496
H            1.27322092051308       -3.61804387416333       -0.26261741827405
H           -0.83269769841988       -3.41547824662747        0.25486606614198
H           -3.15326937443683       -3.34054636696234        0.35615874257853
H           -4.04024506041253       -1.92112949759272        0.08028662847349
H           -4.63525710553946       -0.06858329814139        0.87158907125866
H           -4.84935855875279        1.42895939719998        0.10529066425434
H            0.51056871432486        2.92732459203759       -0.70065596598431
H           -1.00220034734838        3.60543443180717       -1.11904272330294
