33
 energy: -58.085679015243 gnorm: 0.000570356492 xtb: 6.6.1 (8d0f1dd)
N           -4.40885050817368        2.62600391236679        0.42851789994722
C           -3.68019003204687        1.74270637052928        0.30095117699841
C           -2.81250162823628        0.65398835044842        0.12964936231704
C           -3.38104232633043       -0.52750098473638       -0.42981975436791
N           -4.52808980250157       -0.42816933999028       -1.13388488408280
N           -2.94859785217859       -1.74834125320128       -0.20541558850944
C           -1.76690205739510       -2.14597196778551        0.20271671837741
C           -0.52309138116853       -1.51113614954122        0.16770661159612
C            0.64770792659277       -2.34025657650283        0.19475734292505
N            0.54335298614838       -3.71961664395661        0.29264684987709
C            1.91121018191934       -1.78520897198297        0.14481118322510
C            2.06790021533617       -0.41326678715156        0.01967067186108
C            3.21373034099811        0.37368531754704       -0.13175734167442
C            4.53048619372295       -0.05712176823353       -0.20565593444952
N            5.63244765473132       -0.38723420575910       -0.28466015181141
C            2.78239324435476        1.73318031668294       -0.26889525160819
N            3.63389430103443        2.78954803959556       -0.40753144306232
C            1.40164169025247        1.78600174925005       -0.15418682391421
C            0.91172595666194        0.47043324250958        0.02649144290837
C           -0.36952753128638       -0.06570814164536        0.16243892162461
C           -1.46194317471183        0.82129437340852        0.48247570151769
N           -1.14358624657893        1.95831212023662        1.12626785779055
H           -5.02478866550088        0.44512916102660       -1.17664327009847
H           -5.00126950791378       -1.27773422976060       -1.38866441702672
H           -1.78747252440748       -3.18770568691716        0.50615029920068
H            1.41591190123802       -4.20171982964101        0.13827144284059
H           -0.23675356698994       -4.16451836998240       -0.16075742315835
H            2.78321941887228       -2.42439700991486        0.16498042020290
H            4.58136917896477        2.58019992203929       -0.67705964836747
H            3.25528846759168        3.65659792413124       -0.74989829520698
H            0.82500538645713        2.68208803572716       -0.29864828531145
H           -0.19277655209846        2.11115703741435        1.41864739087131
H           -1.85796760145540        2.62737509978582        1.36005688786817
