26
 energy: -48.823792037214 gnorm: 0.000941305324 xtb: 6.6.1 (8d0f1dd)
N           -5.67676059620054        1.63952852319668        0.10634290909993
C           -4.71009352549834        1.02563381468614        0.07812344219200
C           -3.51626756233297        0.26206730897779        0.04968911919253
C           -3.63120255696228       -1.11482917082224        0.32450952222298
N           -2.76808814286002       -2.02814323973057       -0.02316685756232
C           -1.52089442765783       -1.95394707189261       -0.35454093448942
C           -0.58923538566029       -0.90313629371637       -0.11027542939012
C           -0.99630569781632        0.49224203939092       -0.10860413257499
C           -2.32758466895282        0.94567099295575       -0.17808436677508
C            0.00287869922713        1.48138713451559       -0.11475758430850
C            1.35674279396682        1.18778852841748       -0.01436831331027
C            2.28793778101404        2.25357273794588        0.02783923108968
N            3.00916010480295        3.14280660778504        0.05958241902979
C            1.76723716493564       -0.14644937460744        0.04107311084207
C            3.02579536136433       -0.76648380943513        0.10560248574806
C            4.27377940248957       -0.14012427923853        0.15476762463725
N            5.31234224486328        0.34902980578983        0.19588227256458
C            2.81198569821772       -2.16784771219523        0.10218097416145
C            1.46076127076812       -2.43019997241628        0.02384414020014
C            0.76623200468067       -1.19824133085603       -0.02502931192932
H           -4.55039634580935       -1.48837705708693        0.76065339854783
H           -1.12384009830194       -2.86163307718167       -0.79746314794408
H           -2.43792354617624        2.01571909134470       -0.31942475368029
H           -0.29616904405704        2.51823460287904       -0.16793637740449
H            3.59873087071538       -2.89797475065706        0.15395224969849
H            1.01503897094023       -3.40694919864892        0.03151187084228
