25
 energy: -38.705085152600 gnorm: 0.000536573628 xtb: 6.6.1 (8d0f1dd)
N            4.19133120207449        0.52371948653181        0.04038680624065
C            2.99300851792387       -0.12953824576804       -0.00785912914152
C            2.80849153074408       -1.52420862208838       -0.00255208365890
C            1.45525026229232       -1.80975824235717        0.00297232378273
C            0.73418475775610       -0.59505498582714        0.00337938982447
C            1.70992169522657        0.47537203799125        0.00022633722386
C            1.27851298256874        1.78365463411265        0.00121766678865
C           -0.08261055442015        2.04322524985659        0.00409743864465
C           -1.06401151689876        1.04396979187989        0.00367097241691
C           -2.40876055865838        1.47346115814968        0.00244054352620
C           -3.57839303927858        0.74174890042021       -0.00490517254289
C           -3.72917214396630       -0.63784544061440       -0.00970612417704
C           -2.69909523776654       -1.58452429138167       -0.00504890670407
N           -1.40358958797719       -1.46541302936168        0.00154440080003
C           -0.63838349208204       -0.35878210981775        0.00321893154949
H            4.20065799193822        1.49679827293406       -0.21513674865289
H            5.01352532384873       -0.00391292318574       -0.20142221262245
H            3.60665189651576       -2.24513030855448       -0.00484845280418
H            1.00818008709546       -2.78501823709865        0.00402875268928
H            1.97740817327145        2.61016033453661        0.00342260016425
H           -0.41225074855738        3.07339370367050        0.00593903413087
H           -2.53413234580970        2.55071979603216        0.00574145944635
H           -4.49549674924204        1.32014235771866       -0.00708149550029
H           -4.73887885831961       -1.02598143502939       -0.01600298467716
H           -3.01675648677909       -2.62662091194966       -0.00713699804701
