27
 energy: -51.760994089099 gnorm: 0.000613237314 xtb: 6.6.1 (8d0f1dd)
N            5.53713050559981        0.13260976020577        0.00527371096204
C            4.40179566992003       -0.04582908867573        0.00174980233059
C            3.01494743334017       -0.22037876707757        0.00217046444501
C            2.32334765731563       -1.43600299745534        0.00041243501638
C            0.94350973488447       -1.17691992833363       -0.00007988866113
C           -0.17880040103028       -2.00629629794801       -0.00303407859434
N           -0.10244355933253       -3.34696709187521       -0.00521445000143
C           -1.45520831251085       -1.36553032381062       -0.00343714224236
C           -2.59512824901918       -2.19753008670577       -0.00583600694279
N           -3.46042015208174       -2.95198566021387       -0.00688212160704
C           -1.64038159070104        0.01795095358046       -0.00092844767722
N           -2.93056645780467        0.41479017589104        0.00202986125351
C           -3.37622596214908        1.63661110797729        0.00481079892820
N           -2.79103025152467        2.83137744365886       -0.00016211815755
C           -1.48878286354907        3.03451507091341       -0.00361926150936
N           -0.44229652088136        2.24503217740332       -0.00040124513758
C           -0.45848486774960        0.89177807895178        0.00103580820445
C            0.76810478761732        0.25182609164734        0.00180867442898
C            2.07087494409690        0.84342856634416        0.00317701974727
N            2.28343191721674        2.15422507123740        0.00460731704755
H            2.79654950762770       -2.40145148793956       -0.00099985095798
H            0.79008933994396       -3.80645930152684       -0.00428086830326
H           -0.94461071249726       -3.89855625196299       -0.00687472937053
H           -4.46316864622583        1.69822956036074        0.01097509466571
H           -1.22212243733322        4.09193041455223       -0.00867264459324
H            3.21275782743501        2.53956914344012        0.00453056160841
H            1.44111655519272        2.72634679866122        0.00347056791780
