31
 energy: -53.838480471370 gnorm: 0.000499839520 xtb: 6.6.1 (8d0f1dd)
N           -3.86109977767474       -2.76058429795755       -0.37194672078914
C           -3.16496969821693       -1.84750036822868       -0.26764066014557
C           -2.34186825262299       -0.72074636345657       -0.13461913415828
C           -2.97286261285853        0.46466993877216        0.32255637104872
N           -4.17119046911311        0.37226726025378        0.93907344732827
N           -2.55503998726125        1.69363430068748        0.08541110106625
C           -1.35238638796946        2.10352742052227       -0.23091950674448
C           -0.10027869470460        1.49310685098894       -0.11393111054750
C            1.04278079795627        2.35451076009702       -0.09065864626859
N            0.89049621991414        3.73418048636372       -0.13429138272256
C            2.32881568462351        1.84838462841403       -0.04459853976064
C            2.53247143830160        0.48239331466060        0.04145329235821
N            3.69003610379081       -0.16101874017992        0.17616829267904
C            3.36312152582795       -1.46964128706172        0.28412409445406
N            4.34392786895557       -2.40933578580714        0.40614375889058
C            1.98714375851143       -1.70561393120055        0.17683653743313
C            1.39494928377523       -0.44243787148259        0.01942384360046
C            0.08954417468847        0.04824211343833       -0.11500863559982
C           -0.96429885196863       -0.87267018900201       -0.42087301818028
N           -0.60577158826432       -2.05028293284383       -0.96627258324896
H           -4.67922138456373        1.22266251224831        1.10907589382507
H           -4.65262031973560       -0.50938363005535        0.98419039479661
H           -1.36437881000989        3.14104950803430       -0.55135467475272
H            0.09503885617658        4.13046170756175        0.33778176854266
H            1.74601731518078        4.23727518797618        0.04609174652669
H            3.17782698802379        2.51575288265847       -0.03312184570740
H            4.08871055115261       -3.29846224665170        0.80235710460671
H            5.24749066264038       -2.04814882714623        0.66484414892930
H            1.52792089136145       -2.66629145924017        0.31839706382387
H           -1.30451134663312       -2.73753608890660       -1.19278566495922
H            0.35081607913160       -2.18937400896805       -1.24641201782422
