28
 energy: -50.697469153191 gnorm: 0.000384491344 xtb: 6.6.1 (8d0f1dd)
N            4.07041881385484        1.87219910991621        0.52270650448368
C            3.09573134080416        1.29122187396746        0.34319401685609
C            1.86336282822414        0.64075420489490        0.14955966004298
C            0.67566782518065        1.38733649025794        0.11241165583947
N            0.76590301202121        2.78080991677975        0.19056137487869
C           -0.58416063100940        0.76563789873913       -0.04383664063687
C           -1.75009788684236        1.58939353567036       -0.32587900217748
N           -1.59282679004542        2.64738425943980       -1.13797132415938
N           -2.94713039287212        1.43680508081158        0.17529275656837
C           -3.51412822094078        0.35668347109718        0.66813032454303
C           -3.16312445073226       -0.95233340370227        0.44583977720163
C           -1.92623807905482       -1.42622380997791       -0.03701700157955
N           -1.81249825079322       -2.72026537206261       -0.31846310677384
C           -0.69963026325029       -0.65644735646904       -0.08462585527589
C            0.50090371733050       -1.37373853401511       -0.13874985804101
N            0.71994788641334       -2.70790334946806       -0.25768749408561
C            2.05095312289374       -2.82075896367158       -0.20771896644721
N            2.73974097747154       -1.69360297381515       -0.06476281137990
C            1.78984202266984       -0.74406506079003       -0.01492491559123
H            1.68949764643135        3.09691012959251        0.45747114641645
H            0.04003328300753        3.22907111837888        0.73138111425549
H           -0.67566682017537        2.91682793049205       -1.45257305987396
H           -2.39030225603913        3.23005566077110       -1.32686582874579
H           -4.43637712563750        0.56067137194700        1.20177356028005
H           -3.89525029447520       -1.71043382010530        0.69329375464843
H           -2.60040158448877       -3.33007731598748       -0.17252968869593
H           -0.83855395955440       -3.09287437642339       -0.41396847303539
H            2.53611854080907       -3.77607036076772       -0.28924542871588
