35
 energy: -62.329633499695 gnorm: 0.000935713245 xtb: 6.6.1 (8d0f1dd)
N           -5.66765353337107       -0.59106450663974        0.77958726416336
C           -4.59200108232191       -0.25215448086703        0.54759640586840
C           -3.29421075657925        0.16703168561854        0.26756349520331
C           -2.92325923376385        1.46812194677087       -0.13857126871380
N           -3.76605671326571        2.49830626319647       -0.33330327131697
C           -1.50955394128435        1.49203928767621       -0.26031581646822
C           -0.63240751893625        2.51714089930779       -0.56147156771828
C            0.72083445254954        2.27383509037243       -0.48509157321930
C            1.26266139963143        1.01000885644446       -0.18161675794791
C            2.66382839074028        0.95037616876015        0.05198144189117
C            3.37353684044818        2.15876180442143       -0.07317978279416
N            4.02640864116050        3.10238619278203       -0.18454636398717
C            3.46535026258061       -0.12838851622238        0.51484396501348
N            4.69541475918569        0.18809973030210        1.00499428718005
C            3.14192674019400       -1.48062029358238        0.49462909384747
C            2.00182459769800       -2.09930123712558       -0.01169331582690
N            2.04783801627306       -3.46227953721010       -0.12165738980235
C            0.77890441663328       -1.47201363420545       -0.32874124922133
C           -0.14735493262303       -2.28302670050347       -0.99551634381030
N           -0.85831218740466       -2.98422744936362       -1.57551028262248
C            0.36225644715168       -0.11703568131806       -0.10961967604160
C           -1.00262067059700        0.16968213748058        0.00110950661235
C           -2.13382957848703       -0.63713495170233        0.36685776682143
N           -2.16080609412828       -1.86958734607287        0.90292968993681
H           -4.75721550742795        2.35710774437005       -0.24847413011486
H           -3.42098315514189        3.38116173886016       -0.66211457451472
H           -0.98678528479604        3.50819153323932       -0.80572077879553
H            1.40551371542871        3.09127195690189       -0.65190746133752
H            5.35608096792754       -0.54306388796707        1.19735633813838
H            5.04018230233993        1.12907648987778        0.92004619643202
H            3.92802300742370       -2.15224072578764        0.81984616140546
H            2.94550481467115       -3.91351540523361       -0.09744649240363
H            1.32194890041877       -3.92773660638407       -0.64198475039670
H           -1.35763688518830       -2.47110049583047        0.86798624660211
H           -3.05969361784068       -2.29390147916566        1.06151442723900
