32
 energy: -58.368555742584 gnorm: 0.000749336882 xtb: 6.6.1 (8d0f1dd)
N            0.53954981375042        4.20374387764217        0.79057956054733
C            0.58262095485488        3.08055197090877        0.54571703939551
C            0.72378017243283        1.70804130274901        0.28380469300203
C            2.02258068934015        1.15350727581567        0.28784768224231
N            3.10534910369653        1.92371850870699        0.56474242543797
C            2.12802044299289       -0.18109430269384       -0.09686273484931
C            3.21750195122773       -1.03725426093753       -0.36917324138640
N            4.55280651508007       -0.74532300918763       -0.33071821786583
N            2.79439898295158       -2.27932653843301       -0.68264420948630
C            1.46855572606980       -2.27270698832559       -0.61229338446589
C            0.95577722815774       -1.00350702236911       -0.25979785556659
C           -0.34386243615483       -0.49877629904671       -0.08635249239847
C           -1.44099935031760       -1.35143181078944        0.14300346156474
C           -1.16042433062627       -2.70322005244217        0.42343550411325
N           -1.05074366617082       -3.81321496391720        0.71053060979597
C           -2.83623028442332       -1.03764162205306        0.23586451257731
N           -3.67002456907194       -2.04734915358278        0.59198044684337
C           -3.42435602684040        0.18108700117604       -0.06684641339587
C           -2.77556233590882        1.37701510446845       -0.41246079925977
N           -3.52419702227652        2.38752189133502       -0.92401843406691
N           -1.50990426261143        1.70123890715643       -0.24454684449769
C           -0.44054516993812        0.96230028693681       -0.01392392100862
H            2.93942693385086        2.84660063343415        0.93508337857138
H            3.95791092635148        1.46280683560109        0.83452696270926
H            5.12519328544308       -1.49867070147270       -0.68399709342883
H            4.82621060355723        0.17118353033570       -0.65201105009537
H            0.92371526639397       -3.16020158028158       -0.87029903957254
H           -4.65896970025660       -1.88605446798618        0.64319741647162
H           -3.31258955585339       -2.96548454566551        0.78950751447188
H           -4.50696671695603        0.20946078174586       -0.05022459499567
H           -3.07605141176867        3.28349877243364       -1.01174466207629
H           -4.52680961977560        2.34587664643881       -0.90198371492874
