34
 energy: -57.007112060470 gnorm: 0.000783073006 xtb: 6.6.1 (8d0f1dd)
N           -5.60469652368557        0.52668332095319        0.04919807967215
C           -4.46965764011609        0.31474619369329        0.05363936748133
C           -3.09418069408333        0.05598799294562        0.03391810440159
C           -2.70217813135958       -1.30207109819211        0.16958215254761
N           -3.71282852123833       -2.19584569657169        0.40568718031501
C           -1.42270181412471       -1.82453822002525        0.08980282219549
C           -0.14558954061209       -1.24153166510251       -0.00825601287109
C            0.93554616214243       -2.12962538398950       -0.06231046581322
C            2.27206744197429       -1.74433229317167       -0.10183192910153
N            3.27515032019664       -2.67880940657730       -0.19411122770817
C            2.54318115961114       -0.37713050864274       -0.05700994794872
C            3.72179102821106        0.39732789818778       -0.03785422892958
N            5.02128403866740       -0.04445920242253       -0.13058991606968
N            3.45232459288852        1.69963742817347        0.15196301278762
C            2.11809187086024        1.81845889523841        0.22015552883494
N            1.56311114235705        3.05561225442572        0.42836470573275
C            1.46197459958074        0.56584703428799        0.05306096661378
C            0.11284672221868        0.18627419148491       -0.02206627484717
C           -0.85620252167618        1.18504437541879       -0.18522129642746
C           -2.24435496198160        1.16732389918402       -0.18132616760996
N           -2.86141743823234        2.38110458074360       -0.33683363259606
H           -4.66659703485842       -1.89637947981418        0.29360626309224
H           -3.52182546334966       -3.17769144294297        0.31490096571829
H           -1.40049962598383       -2.90855435157475        0.14985849382417
H            0.72055530617656       -3.19044976184656       -0.06374178222538
H            4.16757422936865       -2.40439972415288        0.18502833988552
H            3.00747550739455       -3.62996119885164        0.00786817048569
H            5.67483136766369        0.72126652318631       -0.21880475895222
H            5.17721527846331       -0.78214916680776       -0.80229147767213
H            0.73459590470346        3.07025321995093        1.00568212411882
H            2.25808503557604        3.74190429680715        0.68863930307225
H           -0.44280454581410        2.16552586908081       -0.38315916731205
H           -2.31972352640367        3.15349450117100       -0.68254248471746
H           -3.85419335653408        2.40459397895270       -0.49874434347782
