28
 energy: -52.269155643148 gnorm: 0.000544302609 xtb: 6.6.1 (8d0f1dd)
N           -5.79098790161019        0.71631957340688       -0.48719961617005
C           -4.66099740387595        0.55015831067333       -0.36063962259535
C           -3.29525488490310        0.29239043819854       -0.20683251605165
C           -2.26659630233646        1.23330355287399       -0.09786988920828
C           -1.04967891573472        0.54886946763917        0.03197864439651
C           -1.33564011054807       -0.87184861313762        0.01849327144203
C           -0.33279072767083       -1.77728236229751        0.26538687852376
C            0.99220755513415       -1.32668964878932        0.35414229911564
C            1.96783005671364       -2.29702253473297        0.66806990951689
N            2.67393531192925       -3.13298636581878        1.01445293543521
C            1.32721216748632        0.03570560717980        0.18752011690364
C            2.63264268451225        0.41756575299046       -0.20150669131760
C            3.50754517330316       -0.59627941080351       -0.66687118581829
N            4.26230055923543       -1.32852439583994       -1.12610566444491
C            3.17316334240024        1.70498690749050       -0.37398200446364
C            2.65855015240334        2.91569084347367        0.02658484885072
C            1.41720848118770        3.07572517751088        0.66826368577449
N            0.39890549609582        2.28181212652369        0.64149324934842
C            0.24747959718942        1.02343483467463        0.24718142667753
C           -2.74391814799428       -1.01665494564200       -0.12964831573774
N           -3.44019310328374       -2.16301646921523       -0.18149212600196
H           -2.38974662710672        2.29929518684970       -0.11612807859312
H           -0.52584878618621       -2.83566028217724        0.37365114588986
H            4.16367973933932        1.71838976483198       -0.81485420069775
H            3.27227572996913        3.79580502834555       -0.10005948936407
H            1.23816742672853        4.00447225433017        1.20215370287438
H           -4.44141383012471       -2.13767030545500       -0.27227267649164
H           -2.97534318695132       -3.05055920618223       -0.11605150099223
