25
 energy: -42.725973299829 gnorm: 0.000670936012 xtb: 6.6.1 (8d0f1dd)
N           -0.02350522997515       -3.30336810581036       -0.17463125926341
C            0.32633137375312       -1.97130569148425       -0.09015419051360
N            1.62109839769703       -1.76222873446013       -0.03857377821501
C            2.02864043965547       -0.49931852709799        0.04284514848296
N            3.27741237210744       -0.02604676864314        0.10446372550567
C            3.11308809898568        1.29856444348193        0.08708608157462
N            1.86361954275279        1.75251265870999        0.01779917869495
C            1.10837499187337        0.61609783092121       -0.00250518052432
C           -0.26753776784465        0.42514913983158       -0.03078326298777
C           -1.10490115163174        1.60223884609706       -0.07765377524484
N           -0.45372932721908        2.75885346875172       -0.11912755336862
C           -2.51517890600076        1.65456687283321       -0.10771392463492
C           -3.43423090897613        0.64654261595645        0.02574823471654
C           -3.21209363237047       -0.71834262182010        0.19918341864379
C           -2.01442847891703       -1.39902586037382        0.17067264484267
C           -0.70030203179817       -0.95117592185833       -0.00755459668181
H           -0.78845153154324       -3.55537624267891       -0.77887867898968
H            0.79460832352247       -3.88618143178745       -0.28196295229561
H            3.95170607035032        1.97031860171438        0.12328524007167
H           -0.96318233258093        3.62609567165227       -0.15613263254404
H            0.59287948398863        2.72205741563531       -0.07612533958371
H           -2.91734505451060        2.65662708794498       -0.21094623197161
H           -4.47309030000409        0.95347662317034        0.01542269204550
H           -4.09642353009557       -1.32188934263901        0.35609888445760
H           -2.10570036181866       -2.46595275514700        0.32877728198307
