26
 energy: -48.828057230855 gnorm: 0.000984181177 xtb: 6.6.1 (8d0f1dd)
N           -5.77182073298003       -1.44701684394865        0.00051153749119
C           -4.74595487130091       -0.93796012610108        0.00235510839944
C           -3.47167549780829       -0.30628391286897        0.00109667243110
C           -3.48598532504702        1.08764411543599        0.00135499761575
C           -2.38885134011145        1.94051713777610        0.00126664946301
C           -1.04528686559738        1.63242234801781        0.00092574136873
C           -0.36849639158813        0.39392846154316        0.00049909116428
C           -1.00552665272414       -0.91894198997391        0.00031781156314
C           -0.16482467272164       -2.06542698017239       -0.00009163798706
N            1.14081713361999       -2.05914150955711       -0.00037068490132
C            1.74436733819502       -0.88183551632620       -0.00021145014407
C            3.13215886743285       -0.60528848309178       -0.00045579073034
C            4.16709398108282       -1.54645990943661       -0.00096607672713
N            5.02875719559908       -2.30482328642104       -0.00101100733733
C            3.28630215554287        0.78629144872169       -0.00015491519506
C            2.02619230348249        1.40037376662214        0.00028517383334
C            1.84392515782450        2.78555037561712        0.00087409180146
N            1.70976964993875        3.92815460860608        0.00029781841645
C            1.03070162548547        0.38286627539070        0.00021534259263
C           -2.37688343887651       -1.17219756686099        0.00062080612940
H           -4.46466284812934        1.55162401914198        0.00173357064376
H           -2.62194745292956        2.99759011036518        0.00157988072365
H           -0.38464029678309        2.49050102673381        0.00103214075775
H           -0.62147725715783       -3.04641741054473       -0.00015809341633
H            4.22575704391382        1.30864210989236       -0.00022988383083
H           -2.64064219296225       -2.22538713086060        0.00054358007427
