29
 energy: -56.010347965145 gnorm: 0.000842080919 xtb: 6.6.1 (8d0f1dd)
N            4.81087014824768       -1.94873571273647        0.37456160287436
C            3.97989922025750       -1.16256577342277        0.29938997744377
C            2.97461906540977       -0.17119015302826        0.20141312427753
C            3.35260640645310        1.14324638280483        0.51114201119889
N            2.72533689906129        2.23213674602175        0.16966816375705
C            1.50782618364949        2.41334018565696       -0.28627497865585
N            1.31921229544529        3.54507829923469       -0.97781358473077
C            0.35599615496304        1.57459459323702       -0.01344229026757
C           -0.87680740180616        2.17448859831497        0.15859389692382
C           -2.06972546105729        1.44176941703584        0.28117120238850
C           -3.28323129758856        2.12354118338728        0.50313405870754
N           -4.24598913535343        2.72138858559847        0.67982297536463
C           -2.02116425363517        0.06326712969513        0.13043274122451
N           -3.03707916710407       -0.81680408460403        0.15526602106416
C           -2.49151805528293       -2.01579682804886       -0.01535350650313
N           -3.21898073434488       -3.13847187040090       -0.06236829686245
C           -1.05322640422340       -1.95271281643876       -0.15927594331180
C           -0.25807317278015       -3.07475846227023       -0.34804224305765
N            0.34537304670567       -4.04371859019705       -0.50494646307700
C           -0.73604780788373       -0.59514050603960       -0.07384920800798
C            0.48192153421216        0.13064074319259       -0.06378497682244
C            1.67657008331852       -0.59060248433204       -0.10291653530019
H            4.30776337222417        1.30597163905655        0.99884760690399
H            0.41588042241640        3.79493754441131       -1.33921455365544
H            2.10817798828084        4.14773013361946       -1.14356948812749
H           -0.94152618460188        3.25092203366549        0.23676283307008
H           -2.77250131208345       -4.03367633001867       -0.15230989068640
H           -4.21262272925494       -3.07640753655796        0.06853367946891
H            1.56892822325497       -1.65811073583881       -0.25878920820131
