31
 energy: -53.865327844788 gnorm: 0.000604479324 xtb: 6.6.1 (8d0f1dd)
N           -5.32083913578542        1.67214278903547        0.22625942450841
C           -4.33507705568346        1.07939246521300        0.16893212909031
C           -3.12541108459147        0.39244366416331        0.10292161372770
C           -2.95171941948428       -1.00371256193400        0.04252533238640
C           -1.58622203917514       -1.28307851424699       -0.00140339342233
C           -0.85066187582840       -2.47970083399880       -0.06883350118076
N           -1.46835678447293       -3.69193159730693       -0.06854849798623
C            0.53786196371031       -2.38683243280613       -0.07337913673972
C            1.25497200257950       -1.18659572599305       -0.02036696151847
C            2.65119486195442       -1.25809209362032        0.04731344906380
C            3.59367447737911       -0.22796417028670        0.12056134412506
N            4.89590966098382       -0.58132703721779        0.30880260303630
N            3.42997175157001        1.08961609221109        0.02932826338183
C            2.26784654604388        1.71855172353778       -0.07366286575277
N            2.40402787809966        3.06983928914051       -0.17856117323182
N            1.00563576535619        1.31987796387735       -0.04173639557321
C            0.51100244143130        0.07798880071736       -0.00491909861797
C           -0.87559668254158       -0.03569121754223        0.02476091830975
C           -1.84904718380926        1.00374028574438        0.08940516641667
N           -1.54127143511590        2.30870507245610        0.10827097452995
H           -3.76101459170046       -1.71238798338655        0.03708479631086
H           -2.45825423699894       -3.72810728584929       -0.23200627564043
H           -0.93154168174997       -4.51362068731832       -0.28367075936582
H            1.10488757254096       -3.30865805055423       -0.10298051501008
H            3.06698907928983       -2.25941318782307        0.07851468229882
H            5.58135569801378        0.14912886679746        0.23265627884450
H            5.18746987066944       -1.53461867422813        0.19488460744890
H            1.60868811843306        3.61748005065199       -0.45301755990209
H            3.32738766829655        3.43034864167127       -0.33847245944163
H           -2.24433246890182        3.00590750626594        0.27868129358496
H           -0.54526981041288        2.49399108892959        0.16265031641913
