31
 energy: -59.439970160242 gnorm: 0.000853737788 xtb: 6.6.1 (8d0f1dd)
N            4.20071931563079        0.82285733686413       -1.22542403311277
C            3.36200365950744        0.18138740535256       -0.77309774479461
C            2.34648551637957       -0.69665494756367       -0.33132896262716
C            2.63469323556360       -2.04093881110479       -0.56768262031241
N            2.01753194924999       -3.12099813628962       -0.15134908167237
C            0.82282430733029       -3.16436876777011        0.39626434111003
C           -0.20584169955932       -2.22970667523146        0.37522183850601
C           -1.40362913918868       -2.68564210982076        0.94928554839441
N           -2.36875641106331       -3.09108006500471        1.42958155599052
C           -0.14976159187051       -0.83196899786126        0.02415939479301
C            1.10665131072857       -0.10673757191354        0.07567129282739
C            1.08416434367949        1.25963359380755        0.38834132653704
C            2.24623313785959        1.93214033799475        0.81283645374208
N            3.08979460927546        2.56173995856666        1.27535833822815
C           -0.11614927907509        2.02939789935458        0.38090953847753
N           -0.08622091773887        3.34795912714171        0.69520980968898
C           -1.25890850131898        1.37410506608172       -0.05144723853873
C           -2.57331371167273        1.80880301743538       -0.37036132245518
N           -3.04821311994132        3.07408083566037       -0.37388024005133
N           -3.37026262932069        0.77806854020075       -0.68359328918959
C           -2.65056332310879       -0.34617241242020       -0.57436631431454
N           -3.19496712970168       -1.49650866592972       -0.98218270301496
C           -1.28655042820190       -0.06483353696133       -0.17706364718943
H            3.55973424965093       -2.24783536325666       -1.09852211539707
H            0.59360487230502       -4.12257870677629        0.85502654560968
H            0.77022326625187        3.71308709541202        1.08427422657193
H           -0.94217846700324        3.79465101464820        0.97704906649530
H           -2.40635152019066        3.82736743847975       -0.55893191915944
H           -3.97809895573007        3.17434380638830       -0.75052718925879
H           -2.80692755353588       -2.38510119751078       -0.71541536814479
H           -4.18047857649081       -1.45750357017344       -1.18877561933879
