29
 energy: -55.195206822399 gnorm: 0.000926848409 xtb: 6.6.1 (8d0f1dd)
N           -2.42845973891770       -4.06916473469645        0.13542030871430
C           -1.97336605891529       -3.01630620809306        0.08848513977494
C           -1.44681890148497       -1.70360459300533        0.03463362948495
C           -0.08367356510817       -1.60050372602037       -0.11035700505938
C            0.77162779623319       -0.48842073513052       -0.05184508883487
C            0.43055341229107        0.91545884802127        0.02076573064752
C            1.50782234365985        1.82760466303028        0.26179180833796
N            1.27781713055831        3.18142717687177        0.52383364129513
N            2.79260785733534        1.52578130577531        0.24738595207164
C            3.13560322406075        0.26856550523243        0.04576475496862
N            4.34765008295312       -0.28786930449835       -0.04112303130170
C            4.07815636651443       -1.58914003570051       -0.16285059513559
N            2.78903810884515       -1.95819996505519       -0.17603475749669
C            2.13578677602642       -0.79400582113804       -0.05634232782989
C           -0.87756487975167        1.40806504807353       -0.25949022275136
N           -0.98967603647893        2.67461666567344       -0.68862115661707
C           -2.11625259568383        0.71400417990077       -0.10389262955830
C           -3.26028398601707        1.53902487026671       -0.17710555433063
N           -4.19908844987242        2.20210058228169       -0.22961710142841
C           -2.40258061030192       -0.64348363829276        0.12036511760900
N           -3.67795755887268       -0.99692544753626        0.36342704392566
H            0.46047411227655       -2.53457312026049       -0.20349905071723
H            0.56290635741491        3.37446537697453        1.21259380652958
H            2.15839710539531        3.62663183159336        0.75413774775293
H            4.86372194241216       -2.31704441957128       -0.25348110091992
H           -1.89131442567421        3.06350003060002       -0.91133444482148
H           -0.15540700101847        3.23383113945879       -0.80239721740126
H           -3.92154701515232       -1.97027645023693        0.45153545754623
H           -4.41193642452638       -0.30787301041915        0.37441277134517
