27
 energy: -47.760048860884 gnorm: 0.000558684993 xtb: 6.6.1 (8d0f1dd)
N            5.35945822780128       -0.26058195772160        0.11286473350296
C            4.21842250560531       -0.37424493061378        0.05541293413770
C            2.81024366337944       -0.51380202972118       -0.01496113086849
C            2.37638061435981       -1.80277167537105       -0.31255479509190
C            1.08272744139210       -2.28858607604542       -0.27766333587244
C           -0.08252182083443       -1.58159358794709       -0.05413649044724
C           -0.32720563748135       -0.20230723979025        0.00355212454642
C            0.65823227046175        0.86033976698924       -0.01674189849095
C            0.22929453111580        2.18143003651041       -0.21368411765791
C           -1.10096444417302        2.55329259856967       -0.30570863223610
C           -2.07071904614730        1.58794899096089       -0.13043997208945
N           -3.41518182756090        1.73025236105967       -0.12528662842756
C           -3.90976445418743        0.51860862047744        0.03033316665677
C           -2.91007006492653       -0.48612907631123        0.12362223294898
C           -3.16987627402467       -1.84292538019841        0.29112252113181
N           -3.40810334498867       -2.96145629448473        0.42811322685364
C           -1.68268891121679        0.20131836574636        0.03115695056338
C            2.05937964253176        0.66175642950322        0.23507086238845
N            2.75886749853321        1.71258184596211        0.70465496575258
H            3.16365244874969       -2.51793915322795       -0.51819742588721
H            0.97001064642640       -3.35363390177053       -0.42837433947495
H           -0.97621799147622       -2.19026071692305       -0.00097381788061
H            0.96744157802728        2.95680280204080       -0.36019382951836
H           -1.37696667165082        3.57904041568460       -0.49247683196678
H           -4.97157613394506        0.35529806576609        0.07825984079038
H            3.75058538146072        1.62965505713899        0.86053381982336
H            2.29767247087021        2.56327993991511        0.97286573611329
