34
 energy: -57.799036183115 gnorm: 0.000893139556 xtb: 6.6.1 (8d0f1dd)
N           -3.58805409257691       -2.71998831338850       -0.26496257918941
C           -2.88373447715527       -1.81557194294032       -0.16936366765150
C           -2.06560790666921       -0.67598470722277       -0.04846185471768
C           -2.69360814314504        0.47315273438884        0.50527533462812
N           -3.84762937906443        0.29090557028841        1.19064090046754
C           -2.27981436341323        1.76868206221981        0.22078832623445
C           -1.07398893417356        2.22369416548907       -0.31094020308106
N           -1.09290677243906        3.43824234885445       -0.89780478415070
C            0.19842390241760        1.55307815889331       -0.18026731811448
C            1.37736097506488        2.33880309917670       -0.01337053766052
N            1.29577453084078        3.76351945728701        0.06343512575335
C            2.62111488265868        1.75722255843893        0.09403285681170
C            2.75782602099429        0.37683038904635        0.12022182026008
C            3.86649039481156       -0.45336258043417        0.33012910330225
C            3.41520172687784       -1.75805923476853        0.39555983873218
C            2.02080164623131       -1.79149797280653        0.19115182374032
C            1.25475303122806       -2.94374076286017        0.30179818737024
N            0.62029126873342       -3.90444284129254        0.38901789648989
C            1.58053984317218       -0.44958045110256       -0.00631122922567
C            0.32251652055378        0.13473322708792       -0.21759755834234
C           -0.76995983429491       -0.75457885339562       -0.56620354262533
N           -0.48501836971000       -1.75860373150957       -1.41246346622272
H           -4.25128001312711       -0.62885213729606        1.24920846538035
H           -4.41679297440079        1.08028267675370        1.43787778963498
H           -3.03061072146771        2.53577327326986        0.37901489107893
H           -1.93128515215555        3.99234619689154       -0.86143228420913
H           -0.20646921028065        3.88934001841696       -1.08701090453075
H            0.73488937108629        4.06401487011442        0.85532223726676
H            2.22741933871977        4.15317977434073        0.15989963033083
H            3.49548709835269        2.38499276460758        0.20967320763111
H            4.88140490671538       -0.12518170945260        0.45837683912534
H            4.01657156824633       -2.63037952853198        0.58328466060121
H            0.47606547819146       -1.91918099566783       -1.66906877161836
H           -1.11441622522383       -2.54383910659664       -1.48677587210353
