27
 energy: -51.767846631097 gnorm: 0.000498171156 xtb: 6.6.1 (8d0f1dd)
N            4.68284529614423       -2.33104661813375        0.00501454950530
C            3.96178177136639       -1.43706208941339        0.00362555685184
C            3.06343091460034       -0.34532261537120        0.00384902334935
C            3.66777476722475        0.91176081129078        0.00524037188326
N            3.16799180487649        2.12610646641399        0.01063608664131
C            1.89166553154985        2.44928792345451        0.01257751126514
C            0.70913933451319        1.70168524086366        0.00343312962680
C           -0.49359450019843        2.47319571857320        0.00344624475904
N           -1.71062656155960        2.01775789061353       -0.00313804734206
C           -1.84920343434118        0.68899518639329       -0.01148688368925
C           -2.98784272815208       -0.11695250296826       -0.02028414655285
C           -4.33738100745520        0.22022841932940       -0.02856086312948
N           -5.46921285492436        0.42364525492996       -0.04007211770181
C           -2.49052704691416       -1.46323118389572       -0.02883360725206
N           -3.25361518081372       -2.56656354226536       -0.01747931727975
N           -1.15641617399820       -1.51369544153848       -0.02541183774329
C           -0.71875056264150       -0.22446891515996       -0.01371801806997
C            0.58412655108182        0.25959691698412       -0.00501078773656
C            1.67739976871628       -0.68253858510690       -0.00153757757952
N            1.34802584900187       -1.96380940727354       -0.00559245871358
H            4.75557620712210        0.90504666848450        0.00311791901432
H            1.75342854838999        3.52821252812433        0.02151233646952
H           -0.40662169251117        3.55221697802620        0.00936541757877
H           -2.82494684288528       -3.47100561494842       -0.09509019444805
H           -4.25154308197452       -2.47917356027778       -0.09227629757162
H            2.06466545531863       -2.67387708011614       -0.00204788015689
H            0.33146329336353       -2.18720657181249       -0.01131587657790
