35
 energy: -62.320323902449 gnorm: 0.000894582111 xtb: 6.6.1 (8d0f1dd)
N            1.93166191780063        3.60609346224001       -1.49644155058182
C            1.28370604149186        2.81657463312701       -0.96850277733872
C            0.36557242469398        1.87850160608870       -0.45959141845143
C           -0.97738600833076        2.27687580093136       -0.43028150491244
C           -1.91421873202357        1.37876409392927        0.00458136733051
C           -3.32201321295548        1.50931682499866        0.24300043479123
N           -4.02467284643252        2.65537800015443        0.12177985286207
C           -3.79793200372884        0.27730722624995        0.67420186170963
C           -2.74823922104569       -0.65281152051879        0.68929900163380
N           -2.86503953969924       -1.88238456666708        1.23077461961933
C           -1.55143195490150        0.00216518601801        0.23491227704396
C           -0.25148941420745       -0.44836132041918       -0.00738542679245
C           -0.00956165118309       -1.82217262009607       -0.32646759243095
C           -1.10356048574215       -2.50355045256654       -0.87437749049237
N           -1.96956440734244       -3.09609923218992       -1.35716888637264
C            1.19135796443700       -2.56516533782809       -0.29086584914778
N            1.10610409886278       -3.89435579550015       -0.60653511228014
C            2.43643962203983       -2.11720601783507        0.13927758435597
C            2.86369977760273       -0.82827945576773        0.44333954847940
N            4.13034267034630       -0.71186600343595        0.91916129852647
C            2.13332483353299        0.37552962821334        0.25220366644453
C            2.85517699328283        1.53431516307862        0.60306164619303
N            3.50481972660818        2.39534597252432        1.00778470965132
C            0.77513097114427        0.57092927877521       -0.09680726735764
H           -1.22708739129039        3.29024978665533       -0.71110455731857
H           -3.59921920666615        3.45075161818597       -0.31969565050622
H           -5.02670397787177        2.62907367783537        0.18570386037439
H           -4.80792874929204        0.06473576416678        0.97207151105265
H           -2.13917904655921       -2.56540269136490        1.10538424065984
H           -3.79261475688195       -2.23360495231284        1.39742035456394
H            0.28155059745816       -4.22620973925107       -1.07959198111505
H            1.95836203020261       -4.39940804617070       -0.77559484063686
H            3.19483735775079       -2.88680763173478        0.22859682674221
H            4.53341915042000        0.19611280254931        1.07361898794052
H            4.71694730476621       -1.52259407534378        0.99077053176018
