31
 energy: -49.836288181526 gnorm: 0.000822816055 xtb: 6.6.1 (8d0f1dd)
N            5.46689917423759        0.63791809099166       -0.09788348884709
C            4.46501926693399        0.07357017429123       -0.01961820378900
C            3.24531481717664       -0.58686066442925        0.06833153976224
C            3.03141876460500       -1.96652870215256        0.23259064928790
C            1.66982810769077       -2.22703448635819        0.25708350701918
C            0.97369516672496       -1.01283592619367        0.12425527311937
C            1.97208524984110        0.02398978838761       -0.00141972245481
C            1.57950874352799        1.32506737896782       -0.23428967017674
C            0.23404478450245        1.66082153076958       -0.22461182892546
N           -0.09760746544874        3.02386872292834       -0.46005444158822
C           -0.77664577651948        0.69619685512761        0.02202675608520
C           -2.11174153567382        1.14000136267997        0.33762589953155
N           -2.22922338495035        2.37544265249398        0.87818202419553
C           -3.31692293061434        0.45871162957982        0.17042374802695
C           -3.58664359438269       -0.86438712416551       -0.15294011788398
N           -4.89023994879223       -1.22399275417209       -0.32655763903792
C           -2.62987231433627       -1.89546563025632       -0.19090739270190
C           -1.28037657828676       -1.79853192612404       -0.00768844312756
C           -0.40033409319577       -0.69662828823096        0.06522809834718
H            3.81287178001294       -2.70016750479594        0.32695661174839
H            1.24745084035394       -3.20796952330972        0.38174602550472
H            2.32129883524537        2.09213138216722       -0.41740821673248
H           -0.79723425645105        3.13604057526585       -1.18444778392306
H            0.73130103802812        3.55282016039980       -0.70230352513881
H           -3.13962148359138        2.75234804446492        1.07062599072931
H           -1.42130778510877        2.98086843425993        0.90273372682383
H           -4.19888316446125        1.07007662808951        0.33823173270497
H           -5.11032559712053       -2.14979487238210       -0.64466381469550
H           -5.60228093609138       -0.52052658592016       -0.39724954522523
H           -3.02971710561215       -2.89102047817771       -0.34175570610079
H           -0.76545623714364       -2.74940737409637        0.00031237196220
