27
 energy: -46.952216496472 gnorm: 0.000837391780 xtb: 6.6.1 (8d0f1dd)
N           -2.50339392379433        3.56783317287532        0.02226975319687
C           -2.20739453735349        2.45877538594409        0.01808936178145
C           -1.92715638557440        1.07187159275059        0.01461154845064
C           -3.06142766464543        0.25072592510890        0.03825564737486
N           -3.20973001915474       -1.04338394691291        0.02168607297646
C           -2.22018543671635       -1.95476887469101       -0.00586681635856
N           -2.70986844601949       -3.22092396162769       -0.01191255615282
C           -0.83738362411392       -1.79048959610871        0.00164317140232
C           -0.04223938359437       -0.63476147509027        0.00909278242506
C           -0.54836915644927        0.73350240726385       -0.00581540096224
N            0.24906999524969        1.79969634756099       -0.03151878369478
C            1.56729423088544        1.66976142934284       -0.03345312445983
C            2.18010986280012        0.44145771599633        0.00013045397522
C            3.54225588300867        0.01621670804094        0.02113987757062
N            4.62463792165414        0.82871103384906       -0.03292480801540
C            3.54342148795941       -1.38484654706300        0.05355620389294
C            2.23515358705793       -1.84727428567670        0.05388716707071
C            1.35546451013841       -0.74670527253428        0.02221804108269
H           -4.01232064413497        0.77954391199597        0.06613833549938
H           -3.70582837050561       -3.33025067335235       -0.08445305834556
H           -2.11108447357554       -4.01558154665599       -0.13935447296238
H           -0.27949205148637       -2.71906804069640       -0.00317192634447
H            2.11586895684286        2.60448055713070       -0.06109177557883
H            4.50074030965819        1.81580064992986        0.10612794489273
H            5.53483472151703        0.44213568204413        0.14583367969601
H            4.42493400617606       -1.99958001786633        0.07639512384580
H            1.95785615337043       -2.88541364865803        0.08008768004106
