27
 energy: -42.958446608769 gnorm: 0.000647798586 xtb: 6.6.1 (8d0f1dd)
N            5.09870151500531       -0.85289119088649        0.19661193743614
C            4.04320933390690       -0.40275247303355        0.10968276029199
C            2.74152464886485        0.09471835803639        0.02712683414822
C            2.35925761771872        1.43709311848135       -0.08625242266188
C            0.96422279389262        1.48525290221548       -0.08038612244655
C            0.07536649960587        2.54694703158233       -0.12583608035492
C           -1.27662511060879        2.29359336282583       -0.04897614824168
C           -1.81913086833034        0.99672168740488        0.00884663523478
C           -3.21689774235378        0.91752868802416        0.17834362522891
C           -4.07964522467658       -0.15545673302101        0.24720483442609
C           -3.81411152398931       -1.50072790321727        0.02927800788961
C           -2.58467025897559       -2.06171812346008       -0.29161426670911
C           -1.34040686253682       -1.47081921520719       -0.32690211860862
C           -0.92208739746063       -0.14359506678291       -0.07649742245238
C            0.45194926931555        0.12443469193697       -0.00831905342289
C            1.58224710920290       -0.72284786061138        0.09188453559486
N            1.62676245647556       -2.08784678120424        0.23250078995942
H            3.02866790436921        2.27459782115642       -0.14644971309592
H            0.43876050776203        3.56226017886448       -0.19214372548078
H           -1.96370853917165        3.12763662436079       -0.03650347535835
H           -3.69052878818598        1.88456280641988        0.30837753526638
H           -5.11383721925516        0.09103054833755        0.45600770746765
H           -4.65794472268953       -2.17607220617688        0.07667419792976
H           -2.60140903618024       -3.12017590943033       -0.52485730473299
H           -0.53736073605527       -2.12929007056153       -0.62892661056914
H            2.54437407825290       -2.45196982903306        0.45052347311050
H            0.87934706969709       -2.51259232732024        0.76140764755043
