30
 energy: -54.924999844939 gnorm: 0.000542223723 xtb: 6.6.1 (8d0f1dd)
N            4.67647376251388        1.70233668864341       -0.30757897908850
C            3.66364788385769        1.16551824032148       -0.23030866312985
C            2.41200605182958        0.51736665823346       -0.13132148042814
C            2.47797778673330       -0.83499299375641        0.17106642879920
C            1.46766472391428       -1.77832690676825        0.13358889659904
C            1.87820238092082       -3.11090284155001        0.36981002624681
N            2.20747637953980       -4.19292487478294        0.56807247451889
C            0.08754733748429       -1.59320923155652       -0.17080668040527
N           -0.63617331589683       -2.66906374842391       -0.43322391701649
C           -0.62967401486720       -0.33655286545949       -0.09832169107599
C           -0.08084853049990        0.98881029691293        0.00443530509623
C           -1.00185698651900        2.05099104728804        0.32323846292880
N           -0.53892369075784        3.33831159854893        0.62419336583577
N           -2.30649140552613        1.94788310779460        0.35985935962775
C           -2.84591950824881        0.76028644773168        0.09506780418663
C           -4.16685585297617        0.32485437497277        0.00857439748420
C           -4.08478174618990       -1.04595634999709       -0.21044032449279
N           -2.82331135147385       -1.49855988152790       -0.27555743749574
C           -2.02478308219230       -0.41967802220961       -0.09919313949322
C            1.26710214490310        1.33833465387381       -0.31943529284905
N            1.50579080870099        2.56422012076199       -0.81496297071697
H            3.47029173725567       -1.21755819225259        0.38558017940916
H           -0.20674001103451       -3.58115564806503       -0.38605687674804
H           -1.68793556947074       -2.52751772982121       -0.46803716086273
H           -1.31629556876503        3.90574718690017        0.93936890343351
H            0.23984029584562        3.37536153725096        1.26837838549241
H           -5.05604882866266        0.91426798254165        0.09776745219474
H           -4.90038171831365       -1.73678302530922       -0.33278953583149
H            0.75096136036963        3.23063635052385       -0.88703323937409
H            2.45096964612933        2.85170681078237       -1.01031569144834
