23
 energy: -39.263742932838 gnorm: 0.000754315064 xtb: 6.6.1 (8d0f1dd)
N            1.98969991154467       -2.42487263773915        0.44283475118519
C            2.08839600531728       -1.09263035107429        0.24502511504207
N            3.29485469039939       -0.50095810465233        0.17697819246196
C            3.08737696355305        0.80290415674202       -0.01311650045707
C            1.71999330567633        1.12247675756323       -0.05300474288644
C            0.99623639868020        2.29083240169227       -0.24634094934356
C           -0.38083798833829        2.24078890737111       -0.18732539331228
C           -1.07821844814637        1.04466551174315        0.04760585393987
N           -2.35115746411240        1.15049796271064        0.41399332438168
C           -3.27318253995115        0.23812011123766        0.51571892946497
N           -3.39281723118731       -0.92187947495934       -0.10019745134537
C           -2.36310270322800       -1.61828611957830       -0.55271740966228
C           -1.00945304689103       -1.42970015408149       -0.34434802950459
C           -0.35002327776324       -0.22954826225260        0.01628886340415
C            1.03209062059325       -0.14036918361904        0.09062826552125
H            1.12928800174353       -2.80440951199787        0.80110617397629
H            2.84621254233259       -2.89260319111570        0.69390859620565
H            3.92106655884864        1.47334322269702       -0.11409872871558
H            1.50384179028794        3.23252121042315       -0.39578805176430
H           -0.96853747117786        3.14249701691956       -0.25910886886428
H           -4.14598032113803        0.53725538838930        1.09197627400613
H           -2.66021893766642       -2.51890818284318       -1.08231579553080
H           -0.35985529597687       -2.23261304617601       -0.67165423220241
