28
 energy: -51.467728291260 gnorm: 0.000770186866 xtb: 6.6.1 (8d0f1dd)
N           -5.00538470595831       -0.30127954755464        0.02960532922946
C           -3.91031569187734       -0.65108986503381        0.03527647963756
C           -2.59016091318557       -1.09843472748124        0.05118542190540
C           -2.15199345546197       -2.44131852971769        0.12640525568799
N           -0.83213371615692       -2.56524957974987        0.12115562749475
C           -0.33702335766384       -1.30916959115602        0.06191776816884
C           -1.40837267111393       -0.34101175175081        0.00268706693799
C           -1.08252400828805        1.01073271864541       -0.13114528527237
C           -2.09193621609158        1.97911970350284       -0.31336241336379
N           -2.87128384631025        2.80578338336429       -0.47911766397125
C            0.25980555135814        1.41920939300645       -0.10175533658831
N            0.52810578617211        2.79364043269184       -0.20524419760028
C            1.31929709055899        0.48350641885611        0.03689251574040
C            2.65231515963647        0.94257466862872        0.32250055713613
N            2.80665839742504        2.13217923560747        0.92591177499215
C            3.84248662586066        0.29386509728424       -0.07641080851020
C            3.98693746647302       -0.99570520222031       -0.52930258275080
N            3.18247276302865       -2.01748868139190       -0.28522101637307
C            1.94967751970672       -1.98639779124093        0.09495725326206
C            1.00371959169759       -0.92609387298910        0.03305029879434
H           -2.78236904939883       -3.31032696038633        0.18304588196883
H           -0.30858954208727        3.33050407571692       -0.40215148196286
H            1.27061521995816        3.02708517960743       -0.85137134708581
H            1.99735614138143        2.68621699066287        1.16517842875490
H            3.72828636174351        2.47379084484425        1.13734688075107
H            4.73294874149163        0.91098864170752       -0.04883409257935
H            4.91783870971202       -1.27734708292774       -1.00943432142016
H            1.53144402358621       -2.94300693682830        0.39223471381715
