27
 energy: -47.741198097985 gnorm: 0.000549569513 xtb: 6.6.1 (8d0f1dd)
N           -2.05734564572063        4.21803676751552        0.20516503793362
C           -1.75414771504493        3.11458014941772        0.14174474771521
C           -1.37454577470048        1.74974949299521        0.06084326935500
C           -2.41279239854600        0.82441214001561        0.15987164843663
C           -2.33995382358062       -0.55075042217664       -0.01156405806670
C           -3.59639737999747       -1.20496154021250       -0.01322927953422
N           -4.61107623817258       -1.74213338840737       -0.01656864792174
C           -1.20574391186279       -1.38792084858457       -0.19341670529896
N           -1.47107674067956       -2.65605953131755       -0.56382647235670
C            0.16461560848117       -1.03525908056455        0.02896446604219
C            1.06552461424002       -2.08077067415950        0.29387163215774
N            2.38245671315483       -1.98853282569999        0.36558883379335
C            2.92057903451629       -0.81299826590818        0.14500825714590
C            4.27899225917947       -0.43953914311405        0.10735533570520
C            4.32352155093877        0.92266535230537       -0.10970238352799
C            3.01643194657556        1.44577488338597       -0.21236569563628
C            2.11523107013740        0.40081004078029       -0.07098383681014
C            0.70696533764583        0.30974672359419       -0.06532849855394
C           -0.01606749826961        1.50611261049686       -0.11168335553386
H           -3.40486784841544        1.22932809115131        0.32317118257430
H           -2.42492170559928       -2.96163797896928       -0.67084011183625
H           -0.72899471072015       -3.30716530469234       -0.74685633044176
H            0.69551123627915       -3.07402987221870        0.51712633155964
H            5.11014147107353       -1.10533078481486        0.23242212049750
H            5.21872341904031        1.51280891663290       -0.19454038156059
H            2.79348708658036        2.48388152823792       -0.38044880553265
H            0.59445728996683        2.39574447740996       -0.20198051270454
