32
 energy: -57.571912416810 gnorm: 0.000565388188 xtb: 6.6.1 (8d0f1dd)
N           -3.58450113175238        3.24401494788151       -0.26271644964155
C           -2.95697453688163        2.27999069450238       -0.19002911961317
C           -2.21345124351354        1.09588200731954       -0.09622434447730
C           -2.89547742804382       -0.04389688663346        0.41338734433168
N           -4.01988117586467        0.14262779170047        1.13672036738384
N           -2.59565952088898       -1.28877896090899        0.12614240223882
C           -1.46599156097279       -1.80144640908401       -0.32341178370016
N           -1.60056362009597       -2.96997386773611       -0.97017650457199
C           -0.14777224120651       -1.28064306617157       -0.09665526651458
C            0.93544716320806       -2.17149768742244        0.09382381265644
N            0.72825637196297       -3.56349507718736        0.18958464953763
N            2.20238422931355       -1.81708505119659        0.18249029199513
C            2.49564002486413       -0.53273840979678        0.12890044763365
N            3.71637359301291       -0.01671322812167        0.23060919914781
C            3.54092699986284        1.31936555018893        0.21828735028802
N            4.62226808406021        2.15080442626875        0.27035030868038
C            2.19940591833831        1.70804145117122        0.06476551295422
C            1.46980542871876        0.51904820635926       -0.00877336677488
C            0.13001493249320        0.13244010421288       -0.15999305379418
C           -0.85544489614909        1.13154830777680       -0.47139542489656
N           -0.42010236726359        2.24700235522996       -1.08289058361908
H           -4.41080146352556        1.06408255618004        1.23090762422819
H           -4.58356207791204       -0.65893118333606        1.35906067727712
H           -0.77444600585968       -3.51147147936573       -1.17791004273067
H           -2.51795680417262       -3.37297609435944       -1.04950484479599
H            0.04450394642445       -3.82420782979090        0.89026144494936
H            1.62344874839810       -3.99767042784745        0.38589423664481
H            5.47624393921460        1.70375054865134        0.56256249525046
H            4.47098925426128        3.08407001565055        0.61627290410891
H            1.85914464701331        2.72714622820510        0.10466096080054
H            0.54531449471086        2.31058932682142       -1.35826907900686
H           -1.04659818235432        3.01601828503782       -1.24996170387014
