28
 energy: -52.267569776754 gnorm: 0.000649343520 xtb: 6.6.1 (8d0f1dd)
N            3.98448305611439       -0.97191398259391        1.15307176314290
C            2.91480827044727       -1.02878596152118        0.74283120774918
C            1.55769108882979       -1.19788316812062        0.37396729874005
C            1.07349164246413       -2.48283690128680        0.62502726967574
N           -0.04059338634261       -3.03450972277544        0.22112661686978
C           -1.11460701251528       -2.44331095649941       -0.26467002881033
N           -1.97564436625136       -3.26541968162600       -0.88952967916863
C           -1.48764984804062       -1.06843868837220       -0.06660012917642
C           -2.87190654469437       -0.85390985321427       -0.22374372527546
N           -4.00560204713588       -0.80788722787475       -0.41211423878416
C           -0.63347161241460        0.03041558182770        0.11375092484742
C            0.82306749712648       -0.05554498606466       -0.04417470033752
C            1.52022067234548        1.09424438199252       -0.45116508584278
C            2.85202466465424        1.01216555068943       -0.91421668443691
N            3.89063098532931        1.01759909465731       -1.40201580951019
C            0.92308746269742        2.36765425231097       -0.46446071080800
C           -0.36545522966847        2.49868004500711       -0.01913450341137
C           -1.18923805050896        3.63739683398388        0.18656453952260
C           -2.41291384690833        3.19693962094533        0.64352533447403
C           -2.41205480758690        1.79331558472746        0.71148870910263
C           -1.15720884823517        1.32680055743364        0.29912544212944
H            1.74411780219494       -3.17278432000190        1.12737322010705
H           -2.88290270935989       -2.94967340544978       -1.18761375677964
H           -1.74440086287199       -4.24314589973039       -0.93487628169611
H            1.51139107530359        3.22108282750665       -0.76905383168301
H           -0.89122312583334        4.65447457655763        0.01451797524639
H           -3.24412652438748        3.81918533738583        0.91921287704431
H           -3.23067057715148        1.20167565530514        1.07406737166986
