24
 energy: -38.987044854519 gnorm: 0.000431747252 xtb: 6.6.1 (8d0f1dd)
N            2.03941950346915        2.45250250634910       -0.18223338856245
C            2.08728532043926        1.08922562647817       -0.09448025633006
N            3.28499622516266        0.47155507765367       -0.06811213773683
C            3.06722784361727       -0.83894563163953        0.02016633524064
C            1.69601885210605       -1.13374207679020        0.03896329436084
C            0.91929067392636       -2.27480185694964        0.09207048882237
N           -0.39626635933015       -2.22920848857629        0.04935132096955
C           -1.05614720583166       -1.05747806076666        0.00766740627753
C           -2.44789220221361       -1.23991182024830       -0.10244895510089
C           -3.49053609584668       -0.33580611863791       -0.15812617403779
C           -3.45536461411719        1.04082116345431       -0.01947842825966
C           -2.32991868436463        1.83491224313504        0.20525819948413
C           -1.00529064080006        1.48001387019967        0.23419547631549
C           -0.37134070873252        0.22372015286837        0.05389382623297
C            1.02093595147164        0.15446593489010       -0.00991932591501
H            2.94411386503824        2.86065451324603       -0.36821391288997
H            1.27790648947265        2.85556647722120       -0.70618648059130
H            3.89007721066954       -1.52886847329529        0.05120595575164
H            1.35406475217209       -3.26547352408772        0.15120338151311
H           -2.71315731082505       -2.28712072861575       -0.17581327576190
H           -4.47342556259601       -0.76915473972387       -0.30012798631617
H           -4.40485839653207        1.55822803021891       -0.05874650893402
H           -2.53296626028712        2.88758942079584        0.36699475473440
H           -0.31577955486814        2.28521931442073        0.45175348903338
