29
 energy: -51.199716436333 gnorm: 0.000610150338 xtb: 6.6.1 (8d0f1dd)
N           -1.48795492782660       -4.30176244150340        0.62554440614083
C           -1.28325821319901       -3.18401356239369        0.45281664109877
C           -1.09886214403946       -1.80157786662943        0.25975078847800
C           -2.24311496650963       -1.00194443668063        0.28595969486758
C           -2.11216793515597        0.34123134756429        0.03835688529146
C           -3.07418058250190        1.38536598355032       -0.08733910989046
N           -4.41332142937810        1.24610511267632        0.00526881420920
C           -2.37502399382038        2.57032095090161       -0.38018614171470
C           -1.02015242639053        2.30621592564012       -0.40993531413601
C           -0.80308313662653        0.93020699713055       -0.14022915998596
C            0.36261840824527        0.16764726768475       -0.03885538331314
C            1.62903488425449        0.80828694081553        0.11696252159616
C            1.63879848737610        2.15105236590977        0.53386957813328
N            1.77309890878990        3.22271181505564        0.93631278465222
C            2.93391904749355        0.26248617140231       -0.00751979939771
N            3.99538865932824        1.04172637952382        0.29228555822789
N            3.30374939622815       -0.93405049273187       -0.46604998208120
C            2.54392652756446       -1.99427199507693       -0.57825180582171
C            1.21772218741728       -2.20784089097351       -0.23529662570937
C            0.20005626232673       -1.27763896745037        0.02097620772965
H           -3.20387107249629       -1.46755154640757        0.46084684315803
H           -4.99894054605248        2.06183592385136       -0.00622858129535
H           -4.80876796518230        0.37573837186363        0.31224026889254
H           -2.83253607255533        3.52594746928965       -0.55753486644312
H           -0.26568796736641        3.03127816377735       -0.64584375754176
H            4.90935961171197        0.64998954190528        0.14893402827908
H            3.88742110900673        1.99063498629732        0.60457945609960
H            3.08807446083377       -2.85572331084965       -0.95605751512796
H            0.89784782232597       -3.24252297464257       -0.26248873459753
