27
 energy: -50.983306091891 gnorm: 0.000794504173 xtb: 6.6.1 (8d0f1dd)
N           -1.78241462536006       -3.83516556746319       -0.03150823937958
C           -1.15466097786696       -2.87356366469122       -0.02616085835536
C           -0.33126747922501       -1.72917688292254       -0.02197100738149
C            1.05721417548719       -1.90647204181458       -0.03047966401211
C            1.84368924129327       -0.78032479888302       -0.02565057528965
C            3.25380759972737       -0.49547632377592       -0.03057138931526
N            4.24326297410084       -1.39216350410475       -0.04286736799280
N            3.50827520388092        0.82271734831051       -0.02147538603553
C            2.31601840826707        1.44534087359629       -0.01050446893040
N            2.12258327749669        2.75297905674759        0.00083816309588
C            1.22661145535568        0.50723115139020       -0.01236481106742
C           -0.13579186709179        0.73222031932429       -0.00366935811139
N           -0.53485080792262        2.03716909819308        0.00861099622262
C           -1.77519758842449        2.45087577969439        0.01811795727099
N           -2.94840651018163        1.85845966992733        0.01943855533276
C           -3.13550338805044        0.52601610460255        0.01003405066324
N           -4.43025647499550        0.17050097024613        0.01389712954054
N           -2.30385259827315       -0.50430381814678       -0.00227237716801
C           -0.96937775100144       -0.46077999696661       -0.00879306730720
H            1.46296316134345       -2.90842889064571       -0.04037033469490
H            5.19342045023403       -1.06567252083717       -0.04465305802499
H            4.04475071962002       -2.37578061578071       -0.04886193001462
H            1.13880638374598        3.02748615683732        0.00798768593977
H            2.89281912689972        3.39873078362060        0.00198201009647
H           -1.85798967163226        3.53896560445481        0.02703705113950
H           -4.66322240153412       -0.80681143819485        0.00750752218280
H           -5.13549220989293        0.88506011468199        0.02311437749614
