35
 energy: -67.139815897612 gnorm: 0.000653115184 xtb: 6.6.1 (8d0f1dd)
N            5.83699946019390        0.14022199717884        1.02484011212969
C            4.73934641537422       -0.06202485014226        0.74535697216794
C            3.41112314778607       -0.31192141255229        0.40508332570476
C            2.89671429117044       -1.54594839247979       -0.03557825119961
N            3.60111743827840       -2.66956701774299       -0.23257866989171
C            1.49109751723210       -1.38483300737201       -0.21466347394411
C            0.52654415236831       -2.27352850122860       -0.62228909651491
C           -0.81114064687917       -1.87458869985328       -0.57945081721285
C           -1.76205819647832       -2.80644553544162       -1.04098463889816
N           -2.44387533641400       -3.59359126786114       -1.52621562461998
C           -1.19642970604057       -0.57341502732129       -0.16440270203556
C           -2.51887987252018       -0.36907165684828        0.28220727077599
C           -3.30195559565793       -1.49561069470316        0.59650665869380
N           -4.00591434798227       -2.32646539527199        0.97048285482238
C           -3.13082924503281        0.86988480480005        0.64986600081401
N           -4.21737367198739        0.83367933567695        1.44610195663776
N           -2.81259536481525        2.07503438786371        0.22371750679059
C           -1.71008344641781        2.46128264170203       -0.39441166592145
N           -1.81237191793860        3.67545104267251       -0.97485528727293
C           -0.44495814607363        1.81579947884658       -0.39418614580756
C            0.59810990610826        2.58874848071759       -0.91521677400463
N            1.42119499066979        3.26423047511677       -1.36039258404358
C           -0.16306681747626        0.44834489807080       -0.10811699889955
C            1.15016338580922       -0.00802507695517        0.05846065899513
C            2.35796554818895        0.63794815387905        0.47485542487361
N            2.52632334248639        1.84983022358552        1.02467898054835
H            4.59507191046113       -2.67260080327268       -0.08288041918972
H            3.14899532807657       -3.50684617918355       -0.55216197299050
H            0.76254916442492       -3.28115932876074       -0.93254696982192
H           -4.71342086738507        1.69267274231254        1.60689373777594
H           -4.63389729291352       -0.04420324151823        1.70674316307120
H           -2.69941597940338        4.14460392907490       -0.93755820164624
H           -1.03337511913757        4.09796165732538       -1.44830660858708
H            1.81951680249038        2.56021219155090        0.94983551120660
H            3.46913200983932        2.15393486963682        1.20886962449229
