33
 energy: -63.696219211743 gnorm: 0.000523252365 xtb: 6.6.1 (8d0f1dd)
N           -5.78358800993331        2.09191961302871        1.14275183555321
C           -4.82205019385857        1.52420210363677        0.87535093892230
C           -3.65909666673674        0.81351249241613        0.55039965363552
C           -3.62409905788333       -0.53430968588615        0.14186924273949
C           -2.28715891975739       -0.88846425020938       -0.03768405487667
C           -1.69616521173047       -2.10708173799701       -0.41715518134152
N           -2.42552688190585       -3.17986214323307       -0.75718205691436
C           -0.28592910722788       -2.18824049586207       -0.35948920818951
C            0.32854234568548       -3.43508802168334       -0.57392309721988
N            0.77771345078617       -4.47423279404639       -0.77120874526623
C            0.52476742571658       -1.09448012330559        0.00045864172157
N            1.76018760938177       -1.38772051837223        0.34245016094314
C            2.82154319013953       -0.65401393321949        0.56227070152808
N            3.80471651585518       -1.26428301343731        1.25291189228592
C            3.06139534710745        0.65737504754350        0.04988226520549
C            4.40529349977245        1.06370243695909       -0.01242907362460
N            5.51024217722680        1.38223144314361       -0.05121116330018
C            2.08038930266496        1.57178264478810       -0.36661999404942
N            2.51067011002567        2.73927797109394       -0.89030766860050
C            0.66503252955221        1.40290394371938       -0.20848709265046
C           -0.05885804327029        2.58131550816085       -0.50589868623527
N           -0.54427861199016        3.57926866907812       -0.80518553391662
C           -0.07995822155417        0.24691045354749        0.06000732431126
C           -1.47780124490573        0.27703141857289        0.22037781033906
C           -2.35494898962099        1.31422569247489        0.59030606592731
H           -4.48951036354585       -1.15799137467545        0.00972220276315
H           -3.42849228259589       -3.14034261089626       -0.72431864594167
H           -1.97180970037439       -4.05530401925153       -0.96054595610517
H            3.68003429915172       -2.23587705447607        1.48150420432031
H            4.71891357301763       -0.85107885893311        1.32290847033971
H            3.49768954917704        2.92490099702775       -0.95351927103202
H            1.85959465476479        3.46514999003534       -1.13797813814838
H           -2.08971645163534        2.30361527735767        0.90861857107821
