32
 energy: -59.166343570147 gnorm: 0.000970219754 xtb: 6.6.1 (8d0f1dd)
N            5.06974362465363       -0.20750246856709       -0.22315397315058
C            3.96018299696366       -0.49987623487951       -0.22243427084724
C            2.60157484705216       -0.87970345755224       -0.20352628449226
C            2.25946607129687       -2.09260641787443       -0.81285013530193
N            1.24138593409479       -2.82751321030761       -0.47807374242985
C            0.15116690410164       -2.51686866095795        0.19045863406761
N           -0.41097397315275       -3.50906874441378        0.89469068181292
C           -0.51593448167130       -1.23917593999104        0.08407503617431
C           -1.92593423555398       -1.19822625396477       -0.02915779427192
N           -2.67050651804125       -2.38439035626621       -0.07663525116364
C           -2.59295458911620        0.02870660827252       -0.05255569219831
C           -3.99666589905006        0.05801334203248       -0.15775046111630
N           -5.14136079329379        0.04769500074561       -0.25541688040191
C           -1.86759207442068        1.22641381312157       -0.02298553770396
C           -2.27874266061115        2.55627604031895       -0.12605334462369
C           -1.14404745191660        3.35055822703648       -0.15173446567304
C            0.00513842869669        2.54713604376439       -0.02695175510135
C            1.30021318739052        3.04377950260653       -0.11710116457874
N            2.37504462193281        3.45762523706750       -0.18200508802174
C           -0.42081892058610        1.19013900837549        0.07482504136383
C            0.25046078652356       -0.03407144645425        0.16925171656626
C            1.67777910852328       -0.03256473861168        0.44741439563731
N            2.14618306998379        0.88583134889682        1.29629134933290
H            2.95851778791423       -2.55480106603618       -1.49955115779718
H           -1.32464034546236       -3.38513426432433        1.30002062223984
H            0.03722604567094       -4.40982574125494        0.90754368406803
H           -3.65081346885559       -2.21056110858270       -0.26211875472259
H           -2.30082373450873       -3.08929662874590       -0.69948180886653
H           -3.29477581081969        2.89243925575903       -0.21020796936521
H           -1.12162453169901        4.42019678642329       -0.25823931951015
H            3.13807907669867        1.06969722952006        1.34102419427002
H            1.52918868556251        1.59402981854453        1.66217886950510
