28
 energy: -52.267197791567 gnorm: 0.000874133440 xtb: 6.6.1 (8d0f1dd)
N            4.58339859842358       -2.21463555980433       -0.20309581844123
C            3.57040095439515       -1.68036756390127       -0.12266105200229
C            2.33270308896239       -1.00293941056399       -0.02850765402734
C            1.22271345115127       -1.81954710894561        0.16590396085306
C           -0.13358984067236       -1.52769569721718        0.20487103363447
C           -0.89950101971648       -2.69691486713057        0.44496091551185
N           -1.41673765263791       -3.69188541457265        0.68767415976572
C           -0.80858197546489       -0.28046867648640        0.08135432868764
C           -0.12097614441979        1.00928473485108        0.16890354012642
N           -0.78529782541323        2.16162641918871        0.32569345247851
C           -2.10037183909113        2.21008998072367        0.29433956595025
C           -2.86209560671940        1.08505115010224        0.04059350909657
C           -4.23972577429365        0.86843017693988       -0.12547039957694
C           -4.43366343428089       -0.49425158358729       -0.35495668221621
C           -3.21430770665505       -1.15411774599429       -0.31738870827321
C           -2.19406535412976       -0.19838591505524       -0.06699504530615
C            1.26352017923772        1.25585737816563        0.06908257605312
C            1.56125775429416        2.64563966227398        0.10753348085319
N            1.91875248051364        3.73663963592882        0.12772147459356
C            2.38306621152671        0.41133135148652       -0.10422061896155
N            3.58311347131875        0.98729599316935       -0.31311899522828
H            1.46081612614586       -2.87365385330416        0.27346170075076
H           -2.53647525487132        3.18859617104600        0.44817825985265
H           -5.00048356657014        1.62561085481527       -0.08843555826173
H           -5.38254849372469       -0.96441365529487       -0.53656623757561
H           -3.07843706880527       -2.20408368218679       -0.48582021637325
H            4.41136342913824        0.42074334475914       -0.39200945887531
H            3.66684033125838        1.99059920189439       -0.32220749658867
