26
 energy: -47.223999928651 gnorm: 0.000863666897 xtb: 6.6.1 (8d0f1dd)
N           -4.97895428026825        0.04279727330703       -0.13311612156355
C           -3.86538735503960       -0.23423975594121       -0.07371437972602
C           -2.49379031199355       -0.55397150658214        0.00636917040831
C           -2.18155392183764       -1.83789640131961        0.46496192462786
N           -1.07489244133583       -2.49938220704071        0.26122120170291
C            0.08212385719522       -2.03794903860185       -0.13085262652626
C            0.59675069088227       -0.73484660822721       -0.04617639328486
C           -0.17901848612711        0.49165088559628        0.02425330721141
C            0.49932305818746        1.71606814687086        0.23355099670884
N           -0.21939242159161        2.91537195397655        0.39671536725048
C            1.89278999550554        1.79955749876449        0.27608629633846
C            2.65214693658947        0.67057943864697        0.07087373310485
N            3.98329748343462        0.46154244495950        0.03024507853603
C            4.08439925744035       -0.85322940939295       -0.13113573033851
N            2.94076432257747       -1.55553815034289       -0.19324318736939
C            1.99296735564581       -0.61568596329947       -0.08455936737439
C           -1.57769808032296        0.48950534903061       -0.30905473958259
N           -2.09559206002364        1.57672614055558       -0.89552258619518
H           -2.97563129095123       -2.41382473646390        0.92887258875684
H            0.79645106747758       -2.79892503960908       -0.42888026669536
H           -1.01390107055089        2.84568860031360        1.01914961672245
H            0.38556993759447        3.67765896741001        0.67247262926586
H            2.36631512093792        2.75314303594213        0.46123341634405
H            5.03938335776079       -1.34044656979450       -0.20669188521427
H           -3.07850871683876        1.61361348665219       -1.11454449460431
H           -1.51130757374851        2.38515396938837       -1.05243293040123
