29
 energy: -55.214116359135 gnorm: 0.000519135863 xtb: 6.6.1 (8d0f1dd)
N           -5.78837892940636        1.44358061717988       -0.73397841924674
C           -4.83306029801436        0.83527034487692       -0.53546532173139
C           -3.64077819018282        0.14825970619570       -0.29465478397633
C           -3.48797705493771       -1.20566758929166        0.00499657569111
C           -2.11616721035617       -1.47534389265393        0.17969515645315
C           -1.39309843137956       -2.56149603428733        0.65187663592186
N           -0.07668834914241       -2.56105037627678        0.68012595904654
C            0.62640406210940       -1.48842086079242        0.32187223979585
N            1.88215871762137       -1.72506055029198       -0.00018911315734
C            2.86915036678367       -0.89452140300061       -0.27407239249886
N            3.93411274985350       -1.48218571614763       -0.85687815382148
C            2.95981008480793        0.48872243310506        0.04700840130397
C            4.21917033150587        1.09614523893886       -0.01775148923716
N            5.25613259065018        1.59650652773684       -0.06333351748068
C            1.84747261929387        1.30658014261816        0.37870589388033
N            2.09645530533958        2.57674160725104        0.76922548578214
N            0.56304720241948        1.02595740602138        0.23387653639927
C           -0.02292757181805       -0.16470239765135        0.15812609029894
C           -1.39834286727374       -0.24597383716136       -0.03803599167702
C           -2.35289173425546        0.76663123306774       -0.30979520273883
N           -2.05538893958949        2.05140871560202       -0.52625431676381
H           -4.28866108202137       -1.91559801276386        0.10017521006021
H           -1.87223917908710       -3.46637021844628        1.00322761579100
H            4.79394244729188       -0.97939749765981       -0.99375234582983
H            3.90752805435410       -2.48023327425803       -0.97309656315226
H            1.32593967693198        3.18031310338534        0.99183095506497
H            3.03951961782635        2.91064248566002        0.86213382591358
H           -2.77771353575252        2.74244915830400       -0.63581877258824
H           -1.08624498337224        2.31181884854118       -0.41538779090283
