32
 energy: -58.385638337644 gnorm: 0.000770177650 xtb: 6.6.1 (8d0f1dd)
N            5.59519082157687        1.74444758712227       -0.76977954003867
C            4.53877243452782        1.33112799040069       -0.57549783316184
C            3.28538520191700        0.76161444451844       -0.34829003168349
C            2.05615512186119        1.40931869684787       -0.27203952325907
C            1.05754817937681        0.43713843343429       -0.06931191541174
C            1.70052737418736       -0.84520679235086        0.00823494830261
C            0.93849547450592       -1.98105432816231        0.32414066759929
N            1.51455482502660       -3.20224034627284        0.52256344687721
C           -0.44909342629239       -1.84342156310866        0.36486374296471
C           -1.11540232344441       -0.63475901294271        0.17084459586698
C           -2.51744728256809       -0.65248997163654       -0.03180279794142
C           -3.15366886510150       -1.90386199646583       -0.07457183945855
N           -3.72988761561162       -2.90163022932127       -0.10094045252183
C           -3.36981653908495        0.45561348478848       -0.33326734744186
N           -4.57887043887212        0.18601835575649       -0.87309512740631
N           -3.15927155537924        1.73583608687488       -0.10119166950344
C           -2.01864496267260        2.26659548289814        0.33732951152406
N           -2.14617532474339        3.50289962260515        0.86545842383347
N           -0.77490574139146        1.83475337799771        0.24600080474925
C           -0.32525937914152        0.60156786289874        0.08928800571424
C            3.07744760995863       -0.64342786498137       -0.18876646703913
N            4.07422814191317       -1.58201633228342       -0.19706731038555
H            1.88991391267667        2.46472725533679       -0.36913370157348
H            0.91937585928236       -3.92703115970961        0.89184466963481
H            2.46954869789213       -3.21672367865067        0.84045072868902
H           -1.04116424887225       -2.73505727489634        0.52176213926640
H           -4.89978750317968       -0.76042128084656       -0.97935006949533
H           -5.21503389675062        0.95210851446548       -1.00301732522407
H           -3.03853128270593        3.95986131368092        0.82347715248445
H           -1.31344523739580        4.02286686232422        1.07418492452754
H            4.97909325093942       -1.23613706600039       -0.48392494779161
H            3.84114904376485       -2.49061480152081       -0.56730634909781
