31
 energy: -54.645355994438 gnorm: 0.000959379577 xtb: 6.6.1 (8d0f1dd)
N            2.81300668486164       -3.34218449823420        0.51504550055735
C            1.94942099677891       -2.59177118215922        0.38092475388300
C            0.84441745801107       -1.74216807217998        0.22165976252911
C           -0.42695888681950       -2.35593610562715        0.22376569369898
N           -0.55936244908005       -3.68102414533781        0.43226941075033
C           -1.52237538640718       -1.53181270326555       -0.04222533753657
C           -2.87163887516698       -1.79879434750687       -0.28262246449505
N           -3.55216334336089       -0.68941564475306       -0.56726579194618
C           -2.70114575375690        0.34750850005519       -0.48147699438537
N           -3.14541623701747        1.55475295272583       -0.89782619880591
C           -1.37353957407838       -0.09565370663059       -0.13434508222075
C           -0.13438160387602        0.51878530170828        0.04449803576311
C           -0.02723326929792        1.91344862821101        0.33826382675924
C           -1.14748014722447        2.52436474904258        0.92139733913597
N           -2.03144403047787        3.06786467537180        1.42271307838584
C            1.04313823647144        2.79896843771745        0.18303469298936
C            2.32820959700707        2.56503286991329       -0.23225061578171
C            2.94059238158531        1.30948566373515       -0.40021356616254
N            4.24616876631834        1.31003856240172       -0.78254540968352
C            2.35565266427724        0.06546733665217       -0.16979930651553
C            1.03479181016748       -0.34591840649282        0.03912903155770
H           -1.46221841925592       -4.11130567136636        0.35531454922422
H            0.25620354491384       -4.25919024509575        0.54203510256560
H           -3.37469156413695       -2.74964306050591       -0.28144638806653
H           -2.77369065469510        2.40107761051075       -0.49637690465228
H           -4.13809690862441        1.55828910334571       -1.08178251646049
H            0.80129360328757        3.83187590996586        0.41014804987224
H            2.96476284236199        3.42875863301585       -0.37330480650884
H            4.75504239697970        2.17417591773363       -0.82968292330922
H            4.76942242006027        0.45253693139652       -0.77677627813994
H            3.06075574018996       -0.75750816854979       -0.23001955330146
