31
 energy: -55.439613935572 gnorm: 0.000964337499 xtb: 6.6.1 (8d0f1dd)
N           -4.39751672797678       -2.61198363452487       -0.85585139089995
C           -3.71220608874018       -1.73220183409667       -0.59138863418044
C           -2.89589366314640       -0.61360568742737       -0.28338304264412
C           -3.57285679554897        0.60530664838239       -0.13358614860045
C           -3.02991645461490        1.80451073775924        0.24086956773921
C           -1.68406302278542        2.19410544749098        0.38522116941020
N           -1.50826361315012        3.40573892006241        0.94726513215032
C           -0.50468731163090        1.46685932192840       -0.00058633877843
C            0.68572148417609        2.18598395196202       -0.27435228824884
N            0.66194845106873        3.57640630804513       -0.49336700547006
C            1.92568253869844        1.55669997155572       -0.30180749413363
C            2.01902121954971        0.20537880270242       -0.05253121233005
C            3.14137950181435       -0.66282079962774        0.02034587630145
C            4.47239723278199       -0.25762899296371       -0.08219935138231
N            5.55926598463386        0.10719793313805       -0.17345709224912
C            2.65984891880912       -1.95593214510663        0.20680760934060
C            1.25276090290135       -1.92942463491692        0.24285208583431
C            0.48801648651024       -3.07994771778168        0.44538849127977
N           -0.10434510278623       -4.05093489773366        0.62137886592861
C            0.82530816652515       -0.58610436325857        0.09082995603107
C           -0.45144564080676        0.01398075876446        0.01859776631498
C           -1.54359161585881       -0.85780557808748       -0.10707197497901
H           -4.64779341481582        0.56979317057921       -0.25808760696505
H           -3.74072402310590        2.59620327834205        0.44966744967691
H           -0.58161418230529        3.79285201282385        1.04077346288494
H           -2.30379284255655        3.93882463280630        1.25208547241486
H           -0.08121898525595        3.88781860466029       -1.10429152886722
H            1.55795942737319        3.91931021362416       -0.81361914737666
H            2.81719604696952        2.13610872891559       -0.49993622850115
H            3.25998823326558       -2.84122456647997        0.31398708299217
H           -1.27429725489209       -1.90636512473698       -0.14886248479270
