26
 energy: -38.432707301650 gnorm: 0.000390783683 xtb: 6.6.1 (8d0f1dd)
N            0.49214922516167       -2.44503828165346       -0.62044241347610
C            1.08773830846121       -1.29264667893864       -0.21324553179823
C            2.46526706154226       -1.38242394637272        0.01251944292124
C            3.37926288925188       -0.41191446523102        0.36036158128203
C            3.18036987497011        0.96189031810288        0.37278941025220
C            2.01943886418999        1.64317554785992        0.07948649893732
C            0.69567784106523        1.20696982296715       -0.09354066986277
C           -0.25054031406073        2.23849181240402       -0.30716706726585
C           -1.60390744451305        2.02685898049471       -0.32275682528875
C           -2.09136209476100        0.75103589649395       -0.06128217461490
C           -3.38407783889576        0.25698618590598        0.09102639295450
C           -3.28790663811723       -1.10266248445135        0.40013669318607
C           -1.95715831584205       -1.49053280495870        0.39834400577473
C           -1.15919716280436       -0.35653617717178        0.10693846113415
C            0.22233262312538       -0.16157504452083       -0.02079645392531
H           -0.44688017009102       -2.39062282592436       -0.98329795021890
H            1.07442772048099       -3.20739677951503       -0.92258754071906
H            2.86336229354498       -2.38771434617992       -0.08122650498846
H            4.38254116778221       -0.75698866718197        0.57546735536792
H            4.05002322889858        1.56906972669736        0.58939590071772
H            2.12856775376315        2.72179844356474        0.04351053954677
H            0.12725817235317        3.24263832064354       -0.43863557541568
H           -2.28663398001856        2.84772314398273       -0.49229001253836
H           -4.29093457695597        0.82826043265452        0.01306007074865
H           -4.12013133612364       -1.75202928301847        0.61105560996312
H           -1.61318822820787       -2.46656373375336        0.69101328832670
