33
 energy: -58.887840778460 gnorm: 0.000500939102 xtb: 6.6.1 (8d0f1dd)
N           -6.05600489737839       -0.34839714809792        0.67152162569508
C           -4.94507701310711       -0.12679841756735        0.47115373126842
C           -3.58628980784148        0.09637774716715        0.24375243827659
C           -2.95401484095612        1.33241747516675        0.08167543255939
C           -1.58171730981221        1.09894433672238       -0.06022419526917
C           -0.51140913749244        1.97305945918552       -0.25982613884959
N           -0.68318301372620        3.29768273122155       -0.41794402468517
C            0.79611425690121        1.41337003844816       -0.25953106432682
C            1.84580440214719        2.31826841086908       -0.50475564938516
N            2.60241517624368        3.12851921932180       -0.81307100509044
C            1.04517427745738        0.03489080778459       -0.12983803492377
C            2.37261916928546       -0.36230300390330        0.19428491471980
C            3.15080822529548        0.61170434270540        0.85875771967355
N            3.81309479169960        1.29037415341947        1.51107450727037
C            3.03190924381491       -1.60087140616809        0.02625510217656
N            4.33441113930896       -1.67640329421116        0.39422591159315
C            2.47684877257113       -2.75613724619721       -0.54918130625171
C            1.15645867438461       -3.00604686153763       -0.84705792241163
C            0.03578859169126       -2.22272817399531       -0.62412142296841
C           -0.07544194002961       -0.88475691725628       -0.22948419395850
C           -1.35260483475473       -0.32651311389054       -0.02625621699100
C           -2.61152663006099       -0.93574204392675        0.18654467932734
N           -2.90286056607213       -2.26435608441616        0.32675975047284
H           -3.45571192395147        2.28272661516019        0.08615025038316
H           -1.60496983868802        3.69273292073013       -0.38861923126614
H            0.11279287992510        3.90182570236400       -0.53413510510623
H            4.83790230416747       -2.53869077474218        0.29305297860396
H            4.80135370232864       -0.88332552928311        0.79925326422601
H            3.17866172151328       -3.55927763826343       -0.73568394920303
H            0.95648328102841       -3.98151008798906       -1.27382823633793
H           -0.90348911310942       -2.68890072773285       -0.88715121396120
H           -3.84052597798972       -2.46346682509779        0.64475968037592
H           -2.18653348989450       -2.85560991839049        0.71908690276282
