28
 energy: -50.695055701643 gnorm: 0.000892122911 xtb: 6.6.1 (8d0f1dd)
N            4.32247177236241        1.95948419965270        0.30554369778344
C            3.33531755356154        1.38319627728956        0.18960620579371
C            2.09015585057287        0.73935974132212        0.06983929332291
C            0.91060775109040        1.49110391634372        0.03120835058146
N            1.01203732900673        2.86396783250843        0.07007478775024
C           -0.37541482645155        0.87164357808195       -0.08813778532061
C           -1.44913696567731        1.73542526968471       -0.40842422872890
N           -2.73563419965731        1.62159628788586       -0.31968252987417
C           -3.43946086746258        0.54348159508835        0.05908039935920
N           -4.72241789082002        0.83971440260816        0.36882896800701
C           -3.02838589575147       -0.78369561867598        0.06873770127642
C           -1.73756385263145       -1.30741926727271       -0.05632241937533
N           -1.61188342177470       -2.63058278716364       -0.11563631107289
C           -0.49210540479036       -0.56103354364889       -0.04670900712856
C            0.69745747129568       -1.28207776917123       -0.02866401581833
N            0.91425397553917       -2.62973494978914       -0.04000279803027
C            2.23779140941000       -2.74448678572777       -0.01005019040650
N            2.93786692854983       -1.60751214013272        0.02252196821801
C            1.99795476636766       -0.65615263967009        0.01309962395594
H            0.27045858704746        3.39200403446228        0.49738131867268
H            1.94111013463946        3.21826897554525        0.24257886157822
H           -1.15954957842178        2.70736478054577       -0.80119047302458
H           -5.39752172591693        0.11844369391882        0.54370041026853
H           -5.02878321292938        1.78841217970982        0.24382557284519
H           -3.81694197262557       -1.51905140597969        0.18530324195120
H           -0.64121198622729       -3.01717597035415       -0.11474961757342
H           -2.42710178593344       -3.21802945161762       -0.07433225193333
H            2.72054654792690       -3.70455793884970       -0.01474119367783
