28
 energy: -47.480534438441 gnorm: 0.000729557401 xtb: 6.6.1 (8d0f1dd)
N            4.68594522472297        2.15906535064027        0.00557172237771
C            3.79616716696063        1.43308341228322        0.00540013445183
C            2.71606960045998        0.51799038238078        0.00368251180179
C            1.45585441483326        1.10331279660853        0.00200502893081
C            0.16007902890004        0.57613175130671        0.00035911192559
C           -0.88065630304002        1.52712827652089       -0.00104481495403
C           -2.22060628454017        1.17832515944335       -0.00280755525116
C           -3.21211316629293        2.18451654280029       -0.00412661635222
N           -4.01566850047459        3.00288408009291       -0.00493191144142
C           -2.58280744123175       -0.17271091669160       -0.00321680094134
C           -3.81071189105309       -0.82153533984825       -0.00479448933663
C           -3.55925152375368       -2.19926264503558       -0.00445138095806
C           -2.19080582898674       -2.43030447021375       -0.00261496075513
C           -1.52862936505392       -1.18740623279004       -0.00174905229528
C           -0.17413445580325       -0.83882686825704        0.00003461120151
C            0.77316191173763       -1.88871159042570        0.00138726037255
C            2.14009136580235       -1.91183793968876        0.00316712906454
C            3.06718238511556       -0.85264992517967        0.00425573805097
N            4.38108811030221       -1.17490072474936        0.00607487831612
H            1.49120160980152        2.18859221653249        0.00202372605067
H           -0.62045264957936        2.57621412859506       -0.00074386836514
H           -4.77475032147035       -0.34815244202265       -0.00608906155888
H           -4.31506067665175       -2.96452041349734       -0.00544876403307
H           -1.73814879251096       -3.40483669080023       -0.00200069681290
H            0.31635554692897       -2.86949932124081        0.00088930738104
H            2.59466878676618       -2.89633592333771        0.00388544461293
H            4.66841860604752       -2.13689201072525        0.00633454831062
H            5.08362745076369       -0.45506137300074        0.00671569930660
