31
 energy: -53.848012443465 gnorm: 0.000789564841 xtb: 6.6.1 (8d0f1dd)
N            1.41076161344384        3.81641497726214       -0.24557952411840
C            0.92005307121069        2.77580241905909       -0.21869099794312
C            0.23836340418896        1.54934306394119       -0.18054653441425
C           -1.17750316376236        1.56855187945581       -0.14985240823301
N           -1.84064541314665        2.76291332561407       -0.23701882798818
C           -1.83680420377836        0.35337487609049       -0.01564780591405
C           -3.21246802707233        0.01619069981035        0.04349998504262
N           -4.26952913695591        0.88972867290684       -0.06677316687224
C           -3.31818901499300       -1.36001023268930        0.26778731955736
C           -2.04332025970763       -1.92068568822352        0.29350812092079
N           -1.76944333689414       -3.24565520224320        0.48996488058519
C           -1.08758046813391       -0.87899825014497        0.07402554621733
C            0.29177423216943       -0.92130626403839       -0.09659206445521
C            0.95960461009677       -2.10517336997183       -0.48699556795380
C            2.30670212612446       -2.29215309248556       -0.72812909728051
N            3.35802057274052       -1.56472671383518       -0.40167199361395
C            3.26401755863970       -0.36093799334015        0.16941731671457
N            4.38965014593791        0.05906658895622        0.79287869539730
N            2.28940972405180        0.52761018727094        0.13419540664501
C            0.99330425390207        0.36404901046358       -0.07580706268967
H           -1.26225617061446        3.58830053980601       -0.17002314309694
H           -2.73151392142998        2.82272009054167        0.22815848394864
H           -5.16719817321557        0.44075218629415       -0.17550359402702
H           -4.13118175177207        1.66117480760632       -0.70277772914128
H           -4.23902089006252       -1.90106300993266        0.39092944486255
H           -0.85316136347131       -3.47051871454058        0.84461573858740
H           -2.52294284586024       -3.79463011228113        0.87384635604147
H            0.31649095960368       -2.92393562579541       -0.78165148607016
H            2.58536134886470       -3.22355282066267       -1.21538237079425
H            4.45168844711517        1.03140515791303        1.03879911872841
H            5.23023912198212       -0.47281543470771        0.65136460635646
