30
 energy: -54.138064178243 gnorm: 0.000618689088 xtb: 6.6.1 (8d0f1dd)
N            5.56441645415758       -1.04853676075168        0.00388003865588
C            4.44627637052989       -0.76807926161091       -0.00120598036355
C            3.09618998294167       -0.39980507088433       -0.00542837663429
C            2.15633245700297       -1.43236519540807       -0.02971391087861
N            0.85139155925950       -1.42714575505555       -0.03163207468687
C            0.04579762537918       -0.33137442555108       -0.01290259425254
C            0.40276236416692        1.08286809990644       -0.00291580595615
C           -0.61847578267516        2.03058174694996       -0.02391303555471
C           -1.98789543838500        1.74218085823219       -0.03547850525842
N           -2.91265935772076        2.75642322935729       -0.04956238214045
C           -2.34502087789661        0.39700944250223        0.01658781644447
C           -3.55433744923721       -0.35219395756231        0.07462958459178
N           -4.82078723478146        0.13112864699177        0.12089355128756
N           -3.33717374096736       -1.68030091772959        0.05255153515705
C           -2.00766215547576       -1.84909228451132        0.00514802190025
N           -1.37372202620374       -3.01372271562252       -0.02044659389557
C           -1.31328056168573       -0.58920279047417       -0.00170150882196
N            1.64171925090231        1.61991860548966        0.01287168590889
C            2.79794703539812        1.01060595495217        0.01725246878054
N            3.85987271017163        1.84678639795167        0.04148178694065
H            2.57443370121214       -2.43856100425679       -0.04799814403655
H           -0.30688445177900        3.06511609914599       -0.04259211926746
H           -3.80792169433009        2.54875907693521       -0.46154638157409
H           -2.55170791719114        3.67217604972876       -0.26843781714799
H           -4.96458586668432        1.02865377439590        0.55394140447704
H           -5.52686672874070       -0.56596125590550        0.30085881483174
H           -1.87497384462047       -3.88397385538800       -0.01039124578721
H           -0.35757661903932       -2.92984314752887       -0.03359819582604
H            3.68235506830573        2.83480212966435        0.06647598519927
H            4.80061212598610        1.49384233253708        0.05907361670740
