37
 energy: -70.576927304843 gnorm: 0.000665021237 xtb: 6.6.1 (8d0f1dd)
N            5.48310202549384       -1.00402294293853        0.29451401082532
C            4.36247290032249       -0.75517345266200        0.19544081082580
C            2.99352686313348       -0.45761420022840        0.07895862279907
C            2.61509484157266        0.85385226632374        0.44472716260534
N            3.58061687179704        1.62977027841914        0.98813586460555
C            1.34625886976530        1.44599450320271        0.24136237101460
C            1.29193139509204        2.80648648040506        0.61536490735298
N            1.32316127347477        3.88111933828236        1.02695176168588
C            0.10419273954879        0.86577261900179       -0.11704540706765
C           -0.94997995548419        1.74045618226728       -0.46747072651291
C           -0.68190269535527        3.01582047455600       -0.99546017925369
N           -0.58782750017070        4.02090817549772       -1.54784792424539
C           -2.31313224074994        1.35957983055535       -0.41129451890352
N           -3.29882588174831        2.24161175001079       -0.73533866473007
C           -2.57023708990679        0.08699327441606        0.08304665948596
C           -3.75633126450842       -0.58073561964499        0.48498021823001
N           -5.01396950559866       -0.08198823862526        0.51477527503403
N           -3.50687917313492       -1.84411720079519        0.85574172610025
C           -2.19330106658163       -2.06091400007638        0.69846039954322
N           -1.68224928908660       -3.21228225687437        1.15819539690619
C           -1.51422684357947       -0.88131603088553        0.21147081867207
C           -0.18420195230812       -0.55263623270119       -0.05166347195329
C            0.77542407666607       -1.55065172540538       -0.40525598781193
C            0.22880269849709       -2.72844945842184       -0.93194048296166
N           -0.18181964829280       -3.71246866906825       -1.37412737998197
C            2.18285489232133       -1.50371382703782       -0.42453692929692
N            2.83638112540814       -2.59275209887676       -0.89746418769712
H            3.39727813580915        2.59810338622238        1.19002958446328
H            4.51865953108126        1.27824364911503        1.07785679535206
H           -3.00931214025367        3.09689198223373       -1.18656436391104
H           -4.18605084628183        1.86505661903944       -1.02438931624290
H           -5.69109393783200       -0.67485938250699        0.96948416076675
H           -5.12532309641969        0.90968081539490        0.65033664651460
H           -2.36737399207421       -3.90235886380069        1.42248513024954
H           -0.78787251115547       -3.54586582759447        0.84311231374682
H            2.32534374367586       -3.37668636025944       -1.26408059238365
H            3.84132995866219       -2.60842317354077       -0.91749913603137
