33
 energy: -58.891804783316 gnorm: 0.000747901381 xtb: 6.6.1 (8d0f1dd)
N            4.90963228030024       -1.22081903280078        0.59042866388875
C            3.82312085471849       -0.90317172230250        0.38489267773496
C            2.49171121849644       -0.51560020110249        0.13469525197480
C            2.19750208838923        0.83835883326809        0.39828803399183
N            3.10535562600034        1.57611195598215        1.06855979848835
C            1.07924586038808        1.50824375393081       -0.15960686676357
C            1.21795266769516        2.90594912381830       -0.29361933691887
N            1.36721049122791        4.03927323539785       -0.41031439404896
C           -0.11397747307033        0.94119386465326       -0.62039120663283
N           -0.90001900080580        1.67523744973495       -1.42030696992246
C           -0.59919334310221       -0.37668544363955       -0.25522637287365
C            0.22132900233614       -1.53973876154485       -0.28148555674846
C           -0.39458846130214       -2.81094649048717       -0.15982362272741
C           -1.74160269839950       -2.96827223532957        0.04004660680236
C           -2.55398944435545       -1.84634836251012        0.15783622594708
C           -3.91493215881691       -1.69389512617133        0.44249407168035
C           -4.18592818397384       -0.33964138171847        0.53728934770935
C           -3.01506774801908        0.39924635871401        0.27970639976668
C           -2.92895482646094        1.78123175767624        0.39815055060139
N           -2.85701047582921        2.92902112410116        0.49010357607206
C           -1.96486969614015       -0.52823434403126        0.01933216137920
C            1.64936781238402       -1.51885689984553       -0.39960910054947
N            2.26674406527753       -2.59982787518079       -0.91728557649038
H            2.98536732759988        2.57275015843651        1.14169572310835
H            3.98429351240515        1.17134663085233        1.34510693162165
H           -0.73255281595322        2.66498636295627       -1.52323479571399
H           -1.82461407268907        1.34097171116213       -1.64082581827321
H            0.22253613768677       -3.69699283504481       -0.14293811493525
H           -2.16269645940370       -3.95755870711598        0.14529879337656
H           -4.61705489895636       -2.49243296910489        0.59378616275169
H           -5.13621429077092        0.10313160636432        0.77832842176047
H            3.26865490501612       -2.68378481656119       -0.86567195743348
H            1.73376973202692       -3.37485324835711       -1.26842018442385
