28
 energy: -51.481432910631 gnorm: 0.000825434247 xtb: 6.6.1 (8d0f1dd)
N            5.59225896795816       -2.34852596521489        0.00019146181716
C            4.62867895288746       -1.72314376688361       -0.00021585949834
C            3.46586342305014       -0.94195903132817       -0.00025008296353
C            3.45068034516005        0.47532788575805       -0.00080469075149
C            2.12199936300734        0.88605092904446       -0.00082461069662
C            1.51859514568690        2.16128921731777       -0.00155109617063
N            2.25343366565510        3.28712033376708       -0.00205410630145
C            0.12128799235247        2.22180801202019       -0.00142584136974
C           -0.71047056750531        1.10982586510840       -0.00071493674269
N           -2.01414379975745        1.40569311916516        0.00011141608969
C           -3.06407690622652        0.62002408543674        0.00059178252990
N           -4.24196446379329        1.27698212816217        0.00182289259739
C           -3.11304807215504       -0.81858360016297       -0.00041817685790
C           -4.38792976233997       -1.41132088096592       -0.00195962938773
N           -5.44673150125413       -1.86026634266103        0.00169583394947
C           -2.00932968417951       -1.66848587623347       -0.00126917339539
N           -0.72326700052125       -1.42123535567442       -0.00091130884780
C           -0.10183705384861       -0.24718251816517       -0.00052652087576
C            1.29545730977512       -0.29080026238517       -0.00028830450266
C            2.15569284555097       -1.41192721250224        0.00005893251173
H            4.33069363991246        1.09355490900604       -0.00122016736826
H            1.80691012519211        4.18709745705868       -0.00308389246283
H            3.25618389460897        3.23883770455159       -0.00257720087052
H           -0.36171654377055        3.18808434017667       -0.00174282549270
H           -4.22227367092050        2.28143166349979        0.00233595823210
H           -5.11804426034870        0.78401304873561        0.00214269629524
H           -2.23265954998377       -2.73331611479190       -0.00228664931625
H            1.84261182070735       -2.43764193703948        0.00040488594963
