26
 energy: -48.050127207233 gnorm: 0.000698737063 xtb: 6.6.1 (8d0f1dd)
N           -4.66234437413716        2.08066822991474       -0.00988143407146
C           -3.86777638843336        1.25267601465359       -0.00877864815948
C           -2.88492256356324        0.23210469532455       -0.00484390613399
C           -3.39604970804917       -1.05729910176223       -0.00090321767216
N           -2.79364504051718       -2.23136439020226        0.00316438978499
C           -1.50624685996546       -2.44845859228847        0.00385919166461
C           -0.36572170875956       -1.61367897210946        0.00063680851279
C            0.86785696832434       -2.31727921473239        0.00241717044811
C            2.09236929971008       -1.70644707085547        0.00005707563083
C            2.13065745232989       -0.31391233558262       -0.00422822973341
C            3.15859130624454        0.64726713541653       -0.00758148124809
C            4.53388650672019        0.41540520207484       -0.00770127217425
N            5.66484564948189        0.21192040012975       -0.00646679725265
C            2.50282011067810        1.89401461050391       -0.01106510213702
N            1.18254097409752        1.77384843326439       -0.01022266203785
C            0.90117971016401        0.43996766916696       -0.00610414587859
C           -0.35750664745379       -0.17335581690165       -0.00386844124207
C           -1.52537131114197        0.67764989648881       -0.00617565025118
N           -1.31208247528637        1.98215545156508       -0.01011569827005
H           -4.48006691084085       -1.14038087093525       -0.00097604362295
H           -1.28463091164318       -3.51363515560770        0.00765674044939
H            0.82228878024684       -3.39613509897610        0.00579696220763
H            3.00643524399684       -2.28115229449428        0.00150170502173
H            2.96459106516100        2.86480087876973       -0.01422601281325
H           -2.08954322867063        2.62511473877233       -0.01199839448873
H           -0.30883933329334        2.29550989770246       -0.01132219523293
