27
 energy: -42.162600129780 gnorm: 0.000556228606 xtb: 6.6.1 (8d0f1dd)
N           -3.72003149993684        1.78817778643544       -0.05304558476761
C           -2.83697920937096        0.73867712132930       -0.01140716631736
C           -3.39573308616205       -0.54875018010275       -0.01924270190931
C           -2.73353069579318       -1.75707533212443       -0.03037937500535
C           -1.37669744477708       -2.02261534219852       -0.02777464765551
C           -0.26223848862998       -1.17202511057814       -0.01891864679367
N            0.89331205302146       -1.84076946996402       -0.00547253822448
C            2.06633415903141       -1.21053513098470       -0.00265483160416
N            3.16141846400370       -2.00492706864387       -0.02170859856971
C            2.15492877962059        0.18729871852564       -0.01229327917337
C            3.21967467601913        1.09155232512012       -0.01039495712086
C            2.68157304773103        2.37919375701930       -0.01962629747198
C            1.29645920614971        2.30329854012570       -0.02547949603224
C            0.92701521873921        0.94421434914502       -0.02100434060394
C           -0.32007324288359        0.29134207427908       -0.02113344654379
C           -1.48248502795226        1.06293387982292       -0.01560721815500
H           -3.37931334354688        2.71409493695787        0.13731366376740
H           -4.68856833765043        1.61305922478622        0.14829940472911
H           -4.47857544858821       -0.58756344912611       -0.01939407093100
H           -3.37267808350302       -2.63236161553682       -0.03752160998856
H           -1.09535703468638       -3.06819858580853       -0.03228515139639
H            3.02659502772791       -2.99372418497957        0.09503379740099
H            4.06980716359326       -1.60669034472192        0.12861602066070
H            4.26800301589957        0.84956442981487       -0.00550256274911
H            3.25417639581225        3.29031959350195       -0.02188031477890
H            0.63520760611086        3.15124508828237       -0.03399374613841
H           -1.29177398497911        2.13051312512350       -0.01435867882751
