27
 energy: -47.764862018028 gnorm: 0.000720624061 xtb: 6.6.1 (8d0f1dd)
N            5.44776463595625       -1.63010977511048        0.33280736893172
C            4.43901138044110       -1.09083069808051        0.25201101922866
C            3.19727778491135       -0.42103098049517        0.14617691688182
C            3.16316870096313        0.92324875027232        0.54633953314996
N            2.25823970758341        1.80054759394739        0.21587384888586
C            1.05714678790955        1.64192256208516       -0.28396590896968
N            0.55498871201200        2.69076242760421       -0.94792101874784
C            0.19793854905821        0.48231630967292       -0.10070917711115
C            0.73859904630741       -0.84286627452155       -0.26999058378082
C           -0.17215666401011       -1.92374296205262       -0.43305210290026
C           -1.52296976306674       -1.77969503197310       -0.28490560231655
C           -2.04675777879796       -0.51831664304073        0.01037269177300
C           -3.35226548511484       -0.06121248874965        0.21548291420160
C           -4.51037855030626       -0.83587653079445        0.18927114110964
N           -5.46480995889106       -1.47757974391870        0.16271669099788
C           -3.28858083243188        1.34349615485435        0.45063433893757
C           -1.98895179024684        1.76584044599384        0.35564591885136
C           -1.16646344677209        0.63347769305348        0.08054755623284
C            2.10036519863736       -1.16874475279824       -0.28381268346172
H            4.00812335281932        1.32540764719115        1.09366138301721
H            1.12902899551132        3.50579920298884       -1.08396390108773
H           -0.38006484759034        2.66233409224159       -1.31623916303116
H            0.24237845286875       -2.90034142471399       -0.63365696501446
H           -2.18469608078231       -2.62815089114512       -0.37906836114386
H           -4.14389429002745        1.95897255293650        0.66388209307681
H           -1.64654913321112        2.76872246627217        0.53658812968142
H            2.32327145597010       -2.20257499231990       -0.52515802939226
