30
 energy: -56.516553161349 gnorm: 0.000835919389 xtb: 6.6.1 (8d0f1dd)
N           -6.02485209768808       -1.33359851659402        0.74584289124347
C           -4.99697400558032       -0.86362030057572        0.54793567840452
C           -3.74527354179434       -0.27437567224728        0.31195729186099
C           -3.52725439752361        1.10191552717997        0.09494714477976
C           -2.15369766882220        1.29041020611678       -0.05311018243296
C           -1.39907252180966        2.43535341488711       -0.25477797731837
C           -0.01903219072558        2.33310740800767       -0.27800326788880
C            0.71303264673502        3.53097058464393       -0.41981946282532
N            1.28502180440972        4.51968844748258       -0.53965278709437
C            0.67502528778284        1.08623240754324       -0.13445964788733
C            2.05203117174993        1.18447774861644        0.01374903120247
C            3.07605890778717        0.24672354768569        0.21399011684019
N            4.30240282768340        0.73314759629877        0.49705642366115
C            2.93253339531311       -1.15625401925081        0.08341702822791
C            4.10468341171175       -1.93468106624101        0.22180831500310
N            5.06648191224078       -2.54973520364990        0.33946662558826
C            1.77299146850261       -1.85476555826312       -0.23428848412745
C            0.45622280310521       -1.42491855746909       -0.32462112599099
C           -0.39157142450955       -2.48144037092635       -0.75159550299458
N           -0.96008747879684       -3.38544601037325       -1.17052976339700
C           -0.11905369811979       -0.13881062156834       -0.11433684455607
C           -1.50300954087813       -0.00510866932965        0.03174538948711
C           -2.52511284777943       -0.95207184781660        0.27242645274202
H           -4.28544810607143        1.86167646319020        0.06583285700504
H           -1.86944333649108        3.40283908725681       -0.35569004581607
H            2.41782653077400        2.20681266638451        0.02802289405772
H            4.46002915689864        1.72456570092660        0.54495595298481
H            5.08674463067732        0.11229689654847        0.60798053931894
H            1.91869237292314       -2.91597742516088       -0.41078974400959
H           -2.41144792540523       -2.00350279902413        0.45003085160548
