30
 energy: -50.135992388270 gnorm: 0.000777592331 xtb: 6.6.1 (8d0f1dd)
N           -4.80567420446434       -0.92284397292915       -0.32020334414835
C           -3.71696507853164       -0.56687333993678       -0.19615896798001
C           -2.39167721075103       -0.11761048664932       -0.05213774118389
C           -2.25220430100278        1.25977217606401        0.28419701750912
N           -3.37192926564250        1.90058777236542        0.71384709897211
C           -1.10145308830413        2.00701337352895        0.12357500807696
C            0.19864830496164        1.62489761823038       -0.22949430097356
N            1.05147589979572        2.59318908829469       -0.56378503821322
C            0.75599329558889        0.29226025355344       -0.13301142825993
C            0.02351674027382       -0.92121512556182       -0.00524917568117
C            0.71519520204345       -2.11530811509084        0.31391531746117
C            2.07855248446827       -2.19202361614951        0.45126995839856
C            2.83798757873273       -1.05518984096189        0.20617613570479
C            4.20540320999582       -0.74865234961345        0.19081632390415
C            4.28040553836812        0.60032713392795       -0.10846423380973
N            3.07202519646775        1.16451003220493       -0.28213185166073
C            2.15997244709962        0.18497220617098       -0.09537376750037
C           -1.38521467359504       -1.06553749777280       -0.27024748293251
N           -1.79111344028063       -2.27895335940396       -0.71476541243767
H           -3.36849406003877        2.90068224679171        0.80120026928980
H           -4.25929754849508        1.42831034444419        0.69453363012144
H           -1.23318299379670        3.07618291829545        0.25873585563712
H            2.07108312581199        2.31581682292822       -0.56685268910283
H            0.75450046391851        3.55294818369856       -0.49620793978570
H            0.13682375102546       -3.00253709687727        0.53031514488711
H            2.54819413972412       -3.12386191257859        0.73340994017050
H            5.02458652211272       -1.41813220116425        0.36825590351286
H            5.16664573081244        1.20192436506030       -0.21657866392097
H           -2.76587279652209       -2.44815022806600       -0.89637111995368
H           -1.11655487027630       -2.96816755960378       -0.99143148220154
