27
 energy: -47.754921637856 gnorm: 0.000619402699 xtb: 6.6.1 (8d0f1dd)
N            5.50393134457145        0.60687617669860       -0.85413785795634
C            4.43761840890860        0.24969768469194       -0.62251323093825
C            3.14189165699878       -0.20585961596364       -0.34310041225445
C            2.80378991724787       -1.55324802598858       -0.05291908278201
C            1.43013965159684       -1.61341208232495        0.12141999724837
C            0.57289063707931       -2.67968602129804        0.41254328628259
C           -0.77358036630761       -2.45734132105058        0.45784345447875
C           -1.35445593994722       -1.17889901878069        0.23871310302445
C           -2.72806750783823       -1.15264731284201        0.06702607300596
C           -3.59435198894065       -0.07920438651692       -0.24609520491645
N           -4.82988425581434       -0.38112481442295       -0.70034872615494
N           -3.39141536737017        1.21844890996227       -0.06832303460818
C           -2.26310971932538        1.78966025322627        0.27560577691688
C           -0.95097273035764        1.31249169224531        0.30476438086654
C           -0.03705725951141        2.33915052435900        0.64358503134326
N            0.60344680618059        3.23075511906994        0.97882857200189
C           -0.46630222255082       -0.01597246336217        0.13033803007922
C            0.89270253106402       -0.27388620133805       -0.02570442438248
C            1.99160816105971        0.57396264809150       -0.32256305100405
H            3.49849507353673       -2.37015529502759        0.00923146272841
H            0.97331857265362       -3.67139986939224        0.56452586009251
H           -1.44638646474388       -3.28562229909716        0.62572047059965
H           -3.21604873816636       -2.12082076000313        0.10004082940408
H           -5.46923140760522        0.37589607604046       -0.86702764123087
H           -5.13854732008935       -1.33019406639607       -0.80387144390610
H           -2.38586093912149        2.84386255900401        0.51148439032092
H            1.95887563779400        1.62289493291603       -0.54361964785983
