33
 energy: -62.116633063067 gnorm: 0.000816593825 xtb: 6.6.1 (8d0f1dd)
N            5.50398719548282        0.90186078388245        0.50350375954218
C            4.42604909723214        0.52654143464845        0.34513377261984
C            3.12135788700706        0.05176375381517        0.14086352100906
C            3.01851991304107       -1.27210883147045       -0.37342321919474
N            4.10343499312862       -1.80802041945837       -0.96816523843124
N            1.99855666729619       -2.09227738909142       -0.24673687779617
C            0.75856242110501       -1.83263273117921        0.12815489121030
N            0.03139284252553       -2.88393446692945        0.48645446060410
C            0.06116725872601       -0.56014483984982        0.05576245893797
C            0.68520930064292        0.73360177537679        0.04043067916113
C           -0.16513638943632        1.85749226210189       -0.20729324528282
N            0.35762272984117        3.14432558255448       -0.37627417009355
N           -1.47615702934082        1.81413591170870       -0.29500016299236
C           -2.07368766726762        0.63977518724064       -0.12690207360425
C           -3.42496070331134        0.27172521671733       -0.09208203168709
C           -4.57091583214108        1.04781645155652       -0.20122801021254
N           -5.55625386995034        1.63646345336170       -0.29672363398403
C           -3.41173228263380       -1.14582930939988        0.06722793800514
N           -4.50860036764738       -1.92371716944369        0.21065264837833
N           -2.17447565952499       -1.65003326890553        0.13175740920186
C           -1.32818454812373       -0.58950311983387        0.02345907412517
C            2.05947718064022        0.94495045928203        0.39139379100419
N            2.38770446464580        2.11468132344429        0.97166663233445
H            4.97878576089857       -1.31395301117107       -0.98376833771771
H            4.07453056203272       -2.78130159232830       -1.21640861972441
H           -0.99884320078959       -2.74402700886765        0.50129531097698
H            0.45960406467817       -3.79351832086203        0.43201106450211
H            1.15606782083836        3.20624515675947       -0.99383436786090
H           -0.38749270178101        3.77126539786475       -0.65482789392451
H           -4.40015606501627       -2.91928848375476        0.13212060749481
H           -5.40463098978191       -1.52152802929043       -0.00280493369444
H            3.34725474623123        2.30874379341500        1.20397608794242
H            1.67861114075223        2.81813069790701        1.10993443764992
