33
 energy: -62.908962452600 gnorm: 0.000929856301 xtb: 6.6.1 (8d0f1dd)
N           -4.98731353010692       -0.88764453529246        0.31099818093572
C           -3.94625272533632       -0.41039147721913        0.19918352209708
C           -2.72425040856981        0.24379725656818        0.05910830362541
C           -2.58716728487288        1.64410053497174       -0.07022684382559
N           -3.59530650398779        2.53499075765461       -0.09971525689635
C           -1.20414430204227        1.96342106715161       -0.18811668572623
C           -0.76095232379164        3.27579230397591       -0.30396449621120
N           -0.47317772627451        4.38890351184399       -0.39282054782964
C           -0.47234337988749        0.75767260443215       -0.14769854291378
C           -1.43144838037924       -0.31355073240240        0.02294179293631
C           -0.98700119837194       -1.62717341853304        0.15000070399984
C           -1.88692929904349       -2.68284302543779        0.39179571694995
N           -2.55428727103202       -3.59269034671974        0.60786569805965
C            0.38886250546699       -1.92405055697935        0.03515770510465
N            0.77967268072379       -3.26243001048940        0.07497308894212
C            1.32767780823559       -0.89920748898001       -0.15310133955506
C            2.69587054666612       -1.21892715444791       -0.51743191804475
N            2.92220765197418       -2.30067810430710       -1.27535907026589
N            3.77363596120728       -0.58366404418448       -0.11526347567324
C            3.83507849273571        0.64583488353436        0.36735158205786
N            4.88094011449806        0.95221733409840        1.14823429008264
N            3.05556700380975        1.67004441496379        0.00541346447266
C            1.80093472782542        1.57342628112369       -0.32082931781645
C            0.90569048881200        0.48403757923711       -0.18338153261384
H           -3.39622965681734        3.51881031159603       -0.14264124067554
H           -4.54115116675563        2.22362806487836        0.03363131867436
H            1.65034581613635       -3.44693115690474        0.55120146172537
H            0.03805358720143       -3.88250535670478        0.37359846117601
H            3.86766241819391       -2.50710386668270       -1.54834864784731
H            2.15964938177645       -2.88291773483831       -1.57860291565468
H            5.58462855745478        0.26084172721141        1.33502206648153
H            5.03607122986427        1.91602484748145        1.38613682597812
H            1.37035744109377        2.51474394730629       -0.64582227335376
