33
 energy: -58.098859273785 gnorm: 0.000828998734 xtb: 6.6.1 (8d0f1dd)
N           -5.77180046090037       -0.48303110010356       -0.33238624970058
C           -4.68425328638472       -0.13138118826017       -0.20292837323092
C           -3.34995925752667        0.28876543048797       -0.03100867292212
C           -3.19436516940015        1.58878514835271        0.46663983692878
C           -2.05993119716828        2.34430070939188        0.48342072134120
C           -0.75281319156350        2.00256762540295        0.06316286743966
N            0.08296765344646        3.01909472401902       -0.13971703882805
C           -0.20455575747547        0.67523424209522       -0.04269453847678
C           -0.95144181014973       -0.55902231110034       -0.01174723941793
C           -0.25476264173649       -1.77894993248761        0.22225664131217
N           -0.96082974697897       -2.98342012636661        0.41821082634188
C            1.12667679572789       -1.84295162064258        0.25950478471970
C            1.86547537735283       -0.69601357352873        0.03677648763267
C            3.24531318455124       -0.41032205767566       -0.02708595627555
C            4.31862771265287       -1.28633458341428        0.04006422319214
N            5.22687817557847       -1.99425903687652        0.08229358575395
C            3.32162478896332        0.99327991302175       -0.20094320561014
N            4.46079004022104        1.73075474057500       -0.26140800847587
N            2.11010726068619        1.56444193056599       -0.24772518441868
C            1.19469673770308        0.56715486267890       -0.10539312620251
C           -2.34659032161386       -0.64603755901661       -0.35672685909213
N           -2.75013874823368       -1.73759129252981       -1.03815554332343
H           -4.11020505834227        2.07186595888798        0.78544227878344
H           -2.17586186972892        3.37592283333580        0.79425530381410
H           -0.22374611217330        3.95685751324618        0.06039492833723
H            1.09113892447688        2.77091204110192       -0.26387582243211
H           -1.78134767923246       -2.89440274568042        1.00265751965921
H           -0.35424765945865       -3.71692717301630        0.75939990600008
H            1.62079972055588       -2.78529785697459        0.45127851165739
H            4.38083617482979        2.67207731826151       -0.60588080516047
H            5.31598357537662        1.24028632620660       -0.46232756812431
H           -2.10872891283479       -2.50129798216088       -1.18178307394263
H           -3.73008020511862       -1.87128967329433       -1.22731776527916
