28
 energy: -46.687530311895 gnorm: 0.000618302905 xtb: 6.6.1 (8d0f1dd)
N           -5.42285488763601       -0.70717347206279       -0.24167934811922
C           -4.36937361242936       -0.24269068406329       -0.22786988117520
C           -3.09526819189101        0.31717956308619       -0.20362950432941
C           -2.77292520099135        1.68053855788626       -0.42731817341912
C           -1.41635873226626        1.85909252422002       -0.30370595683293
C           -0.81561317550589        0.60032920655161       -0.01842129804408
C           -1.89460982390077       -0.36946117016781        0.02154332786148
C           -1.62576838181529       -1.71566839849840        0.27034288824906
C           -0.32468370434944       -2.11819508233319        0.38114966246120
C            0.76586151595399       -1.21512974318012        0.27364455083746
C            2.04598990613918       -1.80058995114073        0.26562633977058
N            3.20353753960646       -1.35418359466360       -0.13491928795407
C            3.55129029093358       -0.09269142359832       -0.36460055448108
N            4.75690521125360        0.04495098031006       -0.96074580607126
C            2.88350933902402        1.05565225412394        0.09144929184853
C            1.54393729726316        1.17892591916418        0.41212372315238
N            1.13599159151451        2.35525706139149        0.93469282403450
C            0.50509463352174        0.19345896239616        0.17305620373311
H           -3.49312949750657        2.44498605190139       -0.66011066841070
H           -0.90601953574106        2.78589452789216       -0.49673485813345
H           -2.43857995404606       -2.42315072175901        0.34823369466704
H           -0.09537793474391       -3.16375251529890        0.52570290159213
H            2.07989495350729       -2.85881198529111        0.51446199183211
H            5.25199618822494       -0.78692046098982       -1.22755019105252
H            5.14897590774639        0.94682762418563       -1.15533492676161
H            3.48248501865306        1.95553649174791        0.17503841774509
H            0.18561736664290        2.45209524069670        1.24940686374207
H            1.80949758523839        3.05978782719388        1.17709498565864
