28
 energy: -45.883716956900 gnorm: 0.000684267400 xtb: 6.6.1 (8d0f1dd)
N            4.18937046925311        1.12647143268646        0.40832732335639
C            2.91536781071551        0.67774726062411        0.18650322456003
C            2.77604512215801       -0.69693008394212       -0.04339805312313
C            1.63801493071208       -1.45867758229472       -0.21686391247951
N            1.84619263002401       -2.77386414725290       -0.52246777646717
C            0.27147802055620       -1.05141697383922       -0.01574896324411
C           -0.66682383166049       -2.08273062300048        0.26025639371014
N           -1.96344381347005       -1.96237261675258        0.36954206397758
C           -2.46263429227377       -0.74244823201365        0.17234264589855
C           -3.77415942751765       -0.25444343603516        0.17134852862408
C           -3.65593657688390        1.10741271728325       -0.05132221298048
N           -2.38105221268382        1.51638220427912       -0.19043733218659
C           -1.61570349275848        0.40952006449916       -0.06276275671292
C           -0.21992582036243        0.28225060380597       -0.11179273383919
C            0.56024763133199        1.50328075910554       -0.20036089190878
N           -0.13929678488908        2.60989636875167       -0.45919189934907
C            1.92211423316644        1.64057052061629        0.06323488177673
H            4.31878751713927        2.07409180886402        0.71643160318718
H            4.89529793212897        0.46454604892526        0.67816315983633
H            3.71224556100498       -1.24235472375797       -0.10546434980908
H            1.09005512945051       -3.31595159736738       -0.89933972172959
H            2.77800013679866       -3.06156210953915       -0.76706554160343
H           -0.30534569255390       -3.08231702088085        0.46817482954429
H           -4.67722405812282       -0.81373118484175        0.31117767520909
H           -4.45145930942982        1.82968009796645       -0.12388134819688
H            0.31919055181312        3.50475831428799       -0.41493188622578
H           -1.18627613029792        2.51009981269059       -0.44107817858017
H            2.26609867785146        2.66718243653200        0.14501566415550
