31
 energy: -55.447359945637 gnorm: 0.000372561610 xtb: 6.6.1 (8d0f1dd)
N            5.05005024846743        2.84665961561920       -0.01825259866895
C            4.10812914026757        2.18857679157381        0.01987396793651
C            2.95911622574765        1.37456817862895        0.05783540618767
C            1.76021722215912        2.02016017266284        0.37195076543037
C            0.47444871682588        1.54276978404869        0.38209651007418
C           -0.04962240359435        0.25549596280859        0.12156341471875
C            0.76178149588021       -0.94770662620704        0.05955075662451
C            2.14871632782030       -0.99234815957091       -0.08590779306061
C            3.14159262727277       -0.01296544108343       -0.17274840795393
N            4.39469875536221       -0.43724403268249       -0.45918688779739
C            0.09706256549305       -2.21147738201467        0.12400634402685
C            0.84925904029920       -3.40262026422897        0.14978862093988
N            1.43538564246709       -4.39101645161824        0.17067401861958
C           -1.28604609268231       -2.33853724598718        0.16638986912673
C           -2.06663483729780       -1.20328328685471        0.08464655126132
C           -3.45761744356712       -1.03416301724136        0.05376956153361
C           -3.72122951511084        0.32959827175620       -0.08135788480141
C           -4.97157036640725        0.94170411208198       -0.20228767586154
N           -5.97579675734693        1.48943201898996       -0.31795447990228
C           -2.49168606345031        1.04567919582673       -0.12667189509439
N           -2.42252526359395        2.39320867985097       -0.29831753040730
C           -1.43796058541267        0.10183212110129        0.01537103792679
H            1.87215980897142        3.07152167584406        0.61390126995396
H           -0.27008804374658        2.26905751278942        0.67615011330850
H            2.54313847808121       -1.99884801567157       -0.18680643440013
H            4.58846007403139       -1.41835753762495       -0.55365814081986
H            5.16310325815975        0.21171286458125       -0.46564280325244
H           -1.73255964353678       -3.32015126586850        0.23296750214446
H           -4.19411781890288       -1.81358518582696        0.10754544534943
H           -1.59808673182468        2.78335786777651       -0.72639034578018
H           -3.29319501812726        2.84876232954249       -0.53086023436591
