29
 energy: -50.400435318962 gnorm: 0.000684436176 xtb: 6.6.1 (8d0f1dd)
N            4.82093841336950       -1.27577959779633       -0.02169342915431
C            3.76021705130051       -0.83092359566821       -0.03844242338653
C            2.47736737863136       -0.25597012377111       -0.04379411924377
C            1.39128600010661       -1.09650676507171       -0.29757557755264
C            0.02877724708781       -0.86140984196418       -0.15245058264576
C           -0.86741571926939       -2.00415095331292       -0.09436203737884
N           -0.37362028989149       -3.29087314019106       -0.23095455658183
N           -2.15914367581990       -1.92305250211825        0.05518822270446
C           -2.72693975465987       -0.71800284425693        0.19266005385296
C           -4.05216624689401       -0.37727911750612        0.33689825199455
C           -4.12197546681112        1.03201386465532        0.45420157761413
C           -2.86919045099477        1.58676896482422        0.33460272095495
C           -1.94093465070763        0.52436165535066        0.16093115364148
C           -0.58519537157297        0.44107043051514       -0.07130793201672
C            0.17740187928999        1.63353996415573       -0.42768122947558
N           -0.47263654705331        2.57231245769910       -1.12519565579079
N            1.40649980301556        1.92095430199980       -0.09173625284254
C            2.39404715457861        1.12711383866672        0.27807868221071
N            3.43344135266468        1.72559498398788        0.89312430873867
H            1.67704869438898       -2.11198251199146       -0.54245571670139
H           -1.10119061017828       -3.97267930116901       -0.06783828274669
H            0.49037226647280       -3.51381246761037        0.23696532282812
H           -4.88364800923948       -1.05397946758726        0.36982897496895
H           -5.03274191308569        1.58496532750009        0.60825580353601
H           -2.63186883011369        2.62969279551322        0.45419491491675
H            0.00737714543898        3.41797424042146       -1.38138417284129
H           -1.44370214246565        2.44022594716677       -1.35506706096516
H            4.28803358478612        1.21891021967475        1.04964546399227
H            3.41466343082527        2.72269701528410        1.01413698877014
