28
 energy: -51.490280931179 gnorm: 0.000705641842 xtb: 6.6.1 (8d0f1dd)
N            4.22598022650077       -2.35357120874990       -0.16336707368327
C            3.23517311248633       -1.77899499450010       -0.11514404377729
C            1.98305101416069       -1.13109653669639       -0.03635223631278
C            0.83018197811800       -1.89560920847188        0.05297366057267
C           -0.45987333919164       -1.33503772131493        0.10660874522224
C           -1.57945751566308       -2.25294261298194        0.14681629758545
N           -1.37310072310531       -3.47735544929076        0.66637587513756
C           -2.80790075896008       -2.02301627899903       -0.47947145567348
C           -3.29064696408947       -0.78956327189034       -0.88305948241913
N           -2.95338702492468        0.36632634400084       -0.37644170314878
C           -1.89389643902826        0.69984600359131        0.31391500420544
N           -2.01618294794539        1.69889435563519        1.19101996783906
C           -0.58890532015056        0.08333931924960        0.11562705299587
C            0.55914382123141        0.86798563397698        0.01144686087349
C            0.82700682564881        2.26268590955773       -0.07883675954822
C           -0.06589609597502        3.32592374258592       -0.10515260732000
N           -0.81253665444487        4.20459786908916       -0.10100223682860
C            2.22485304427599        2.36318254349532       -0.19237597330525
N            2.84049063215280        1.18486539658390       -0.16844011584382
C            1.87568447831017        0.26327649469727       -0.06626587009494
H            0.94723963235870       -2.96826455404848       -0.00326846402004
H           -2.09035993196490       -4.17839389997133        0.59968621891534
H           -0.49681639735738       -3.72571537473663        1.09004168853681
H           -3.42395404355043       -2.89072485951573       -0.67555661954220
H           -4.13061247878824       -0.74951555719068       -1.56657155415330
H           -2.87759268144570        2.22217105859883        1.20217154727784
H           -1.19780237054452        2.14681488854219        1.57004180085510
H            2.78909099658699        3.27330519615241       -0.28813876184552
