26
 energy: -44.048794633206 gnorm: 0.000513825624 xtb: 6.6.1 (8d0f1dd)
N            4.90004101695940       -1.35944767850874       -0.00177867194201
C            3.90321716404241       -0.78710642823044        0.00117609638023
C            2.67986487000058       -0.11376921069875       -0.00012492979627
C            2.48618971305012        1.27119614003267       -0.00029006359425
C            1.11287198561311        1.54412482671153       -0.00053397516282
C            0.61032274502427        2.84693916100476       -0.00030842082820
N            0.23765076706684        3.93618890991845        0.00002697956615
C            0.40457079891974        0.30472589879598       -0.00069902371375
C            1.40497926957637       -0.72957991822798       -0.00054097452981
C            1.03437306164789       -2.06715813384508       -0.00046661312307
C           -0.30318851722750       -2.38492384377162       -0.00063596875183
C           -1.32772548721020       -1.41626889849457       -0.00095255244687
C           -2.63887993141719       -1.92214749389865       -0.00116190685197
C           -3.87456578924188       -1.30487692856092       -0.00169942825801
C           -4.16772097369727        0.05055582440120       -0.00214453783543
C           -3.26330603375408        1.10369544250641       -0.00199971168897
C           -1.88370652482034        1.06518262024345       -0.00144079762586
C           -0.96798386146234       -0.00260999499286       -0.00100238738965
H            3.26412769324907        2.01296694632464        0.00005195045902
H            1.78845548819992       -2.84068606036657       -0.00031501566159
H           -0.59161215137681       -3.42579306553724       -0.00053180458976
H           -2.68288900843221       -3.00594918739177       -0.00090642269024
H           -4.72764262823225       -1.97201089215522       -0.00182307517020
H           -5.21658652173301        0.31672262596989       -0.00261716190774
H           -3.69611820070628        2.09619372304067       -0.00235629871346
H           -1.41393723623990        2.04038887003144       -0.00139476113405
