30
 energy: -50.120713698330 gnorm: 0.000859197315 xtb: 6.6.1 (8d0f1dd)
N            3.97349103832629       -2.19027327687013       -0.69266209540521
C            3.07906610192475       -1.50714493250842       -0.45597294113532
C            1.95545789947208       -0.70342619012852       -0.19070299539607
C            0.68611576019824       -1.29934407141414       -0.09944534668195
N            0.59547701407992       -2.70233696082981       -0.19360025182032
C           -0.46402170607419       -0.51840124312754        0.11863096966567
C           -1.70907511352166       -1.17077441703541        0.46080347398495
N           -1.64835560303830       -2.28884260512433        1.20950347155955
N           -2.92671578080217       -0.83713788823861        0.09404309938816
C           -3.40329630280003        0.32346774734236       -0.30549830910856
N           -4.62355796672399        0.28049675414767       -0.89292536793119
C           -2.80231600217118        1.58303048865233       -0.07271000052748
C           -1.47995989556402        1.80056760077988        0.19451809322291
C           -0.37192052474605        0.91848435434279        0.16005960176485
C            0.90952826690897        1.49838248711836        0.16827441355433
C            1.36109274884827        2.81554290421244        0.26687162280418
C            2.75538835977228        2.81009555284320        0.16738082892886
C            3.21663942488868        1.50931125874426       -0.00615274534838
C            2.10224622835161        0.67179429533940       -0.01247083326911
H            1.47147264591174       -3.11835133048931       -0.48683600432313
H           -0.17248910330951       -3.02694572231355       -0.76713517885842
H           -2.50408116496630       -2.77835552744018        1.40617587256918
H           -0.75682295317630       -2.71732762071205        1.39990173995356
H           -5.13494654622350        1.12703082596691       -1.06302555225820
H           -5.10114101594705       -0.60152225460807       -0.94719900807117
H           -3.45368986134896        2.44457791473474       -0.14302004197155
H           -1.20439289177217        2.83558165015152        0.34371623713617
H            0.76484223414650        3.69899949039444        0.40650139004900
H            3.37775683506077        3.68649946340322        0.22330396598093
H            4.23871544659386        1.19896593836617       -0.12016217585538
