32
 energy: -59.180454982384 gnorm: 0.001000705353 xtb: 6.6.1 (8d0f1dd)
N           -6.16367252762585       -1.25666095460744        0.30053681367601
C           -5.16469686383433       -0.69244922398846        0.22333588279411
C           -3.92551531716721       -0.05557988066711        0.12893571086570
C           -3.67787905947293        1.31428008364233        0.04592297535297
C           -2.28309989727677        1.51769322514774       -0.02631813158638
C           -1.49378079634784        2.64997598695161       -0.14559893279438
C           -0.12210073940423        2.49970115317721       -0.17901200765712
C            0.54219562439118        1.26200298704313       -0.10162458644202
C            1.96201503868175        1.29032767749007       -0.02686825737605
C            2.56532857029051        2.56583262176554       -0.03553599137679
N            3.12651011151065        3.57120249160457       -0.04743231093626
C            2.89605775069665        0.23237004107788        0.10531787191996
N            4.19421913709976        0.56765249251027        0.28293589883400
C            2.60872803088466       -1.14907111436475        0.04295315811726
C            3.70121682887755       -2.02533650942828        0.12845207757243
N            4.59036635267283       -2.75577854612018        0.19327289643559
C            1.33524352406130       -1.76070712091929       -0.13481332776809
N            1.32977321105210       -3.10685065921523       -0.29694666637315
N            0.13355308297181       -1.23032776070136       -0.11290406683687
C           -0.26377650829246        0.04918657127416       -0.05509259555562
C           -1.64546299291609        0.23774975210077        0.01161585796524
C           -2.67584629291800       -0.74526206254283        0.10306027742488
N           -2.45097036896873       -2.05561641198940        0.15447253959495
H           -4.42833761095835        2.08311554611432        0.03553363741341
H           -1.93245034902615        3.63477514317313       -0.20106626565907
H            0.48616375566311        3.38938599898515       -0.25110623931470
H            4.89641971814527       -0.14976830708742        0.34505997073237
H            4.47551446927033        1.53312832979402        0.29716430638436
H            2.19040914446637       -3.62279948457133       -0.35763515993916
H            0.46020673889868       -3.57491504141625       -0.47990149170198
H           -1.46792651649044       -2.31048037800082        0.10795219234677
H           -3.20311207173517       -2.72036373023184        0.21935495448766
