27
 energy: -47.750165738485 gnorm: 0.000987945307 xtb: 6.6.1 (8d0f1dd)
N            3.28457560213080       -3.28216282782448        0.30857988424826
C            2.78599573517618       -2.25371010468839        0.22660591829357
C            2.20621788690104       -0.96144901267028        0.13055535902393
C            3.11973204761541        0.10805264856380        0.19887728259522
C            2.86186038921569        1.43722404521547        0.01511055485125
C            1.63658933628837        2.11199673600826       -0.16998668542742
N            1.75781884733429        3.40997273953803       -0.52333111690775
C            0.31867642914886        1.59733392968302        0.03511114579395
C           -0.71977886812649        2.53111218135799        0.24830305047958
N           -2.00513469869563        2.26969292562376        0.31707894134200
C           -2.38115447759515        1.01690764250958        0.14520606127217
C           -3.68114749996444        0.47920509017875        0.12482038382896
C           -3.56640237457854       -0.88523195396250       -0.02757125671892
C           -2.19737356517656       -1.25230215238761       -0.10385385774894
C           -1.77098511679510       -2.57000394260873       -0.26148027472837
N           -1.44937142085961       -3.66731904637375       -0.40008543112893
C           -1.42518974620970       -0.07652822082316       -0.01009871326542
C           -0.04499876808468        0.19424667934393       -0.01062551798006
C            0.83607706579380       -0.90561556754302       -0.02907140428968
H            4.15490049249818       -0.17129921409034        0.35125589257253
H            3.73072016799270        2.08580329581104       -0.00327724473415
H            2.67045768585833        3.81130628063678       -0.65082444301101
H            0.95649415322649        3.96490250009387       -0.76173143817200
H           -0.48256865610395        3.57108360581866        0.43489693630323
H           -4.58805571369283        1.04421747421752        0.21489982410694
H           -4.37649070580722       -1.59004883469190       -0.08484474928066
H            0.34524801260952       -1.86927885323644       -0.09883018831825
