32
 energy: -58.375882412659 gnorm: 0.000710576317 xtb: 6.6.1 (8d0f1dd)
N           -5.57412791377910       -0.70404962782741       -0.24231077911351
C           -4.44028944838548       -0.51193453227136       -0.15934937411407
C           -3.06074342549809       -0.28957404338076       -0.05942358847853
C           -2.60684184526772        1.04462255755711       -0.15064750133801
N           -3.54449723260047        2.00305390887641       -0.35268524400307
C           -1.28353549729933        1.48608517673879       -0.03645055964208
C           -0.07902953188081        0.79330879709982        0.06150594709261
C            1.11265744826829        1.56525024368714        0.14586052031706
C            1.02727815959335        2.95868815710770        0.28749986245529
N            1.01902052460003        4.10335386848842        0.41705660493637
C            2.41424063694760        1.01602406232536        0.10224924383925
N            3.50849729963860        1.81871193496361        0.17775986741604
C            2.51334343336596       -0.36446194225343       -0.06854705765008
C            3.58070380937924       -1.27795090465126       -0.20154611742547
N            4.92138324226510       -1.02011908920894       -0.25839501533383
N            3.13168454584903       -2.55525773426568       -0.23843257490037
C            1.81049630210587       -2.50737343727565       -0.15193620739009
C            1.33150501590329       -1.18125310019259       -0.05866269605313
C            0.03539013458839       -0.66531597028718        0.04248186641878
N           -0.93906071744496       -1.55684954729786        0.15053259122852
C           -2.24546217546178       -1.43576905860504        0.17840002719603
N           -2.88114096850021       -2.60126369730324        0.44098527263139
H           -4.51958607459361        1.76133013476451       -0.39011156853128
H           -3.28288672827596        2.97220677841777       -0.35900773475684
H           -1.18356158779646        2.56613898809278       -0.07445070185667
H            4.38076255604515        1.40075175393327        0.45224513367739
H            3.36428398392264        2.78352303006908        0.43282151723506
H            5.46892042158739       -1.84032715978027       -0.47518190853431
H            5.20824199363515       -0.18489633320028       -0.74515839689419
H            1.22455337582097       -3.40640452811788       -0.17030485801391
H           -2.31604394705120       -3.42603342295157        0.53862758865708
H           -3.88269741548096       -2.67356708205137        0.40593591072868
