28
 energy: -45.879126109554 gnorm: 0.000512015126 xtb: 6.6.1 (8d0f1dd)
N           -4.50016549869673       -0.87662052854718       -0.63056674964217
C           -3.35570457712162       -0.30201422529334       -0.15808238029205
C           -3.43419101604215        1.04768514185228        0.25271236782061
C           -2.35402044222055        1.87367559256620        0.49262240735049
C           -1.00471719481746        1.60376304407826        0.36075622391406
C           -0.35363862153609        0.38122107398594        0.08860827120159
C           -1.03078119487985       -0.90884971595734        0.07831478101551
C           -0.27003018981761       -2.08298662591526        0.21821412324971
C            1.11044605932500       -2.09375036304383        0.22856990942552
C            1.77768884566097       -0.89775558722402        0.05717164852435
C            3.14326744067930       -0.52258256582248       -0.05362525915248
N            4.22602992346374       -1.33229236904228        0.05939151257200
N            3.27924249009412        0.79736230817064       -0.24969333935767
C            2.04132146055596        1.32582383706368       -0.24411126776394
N            1.88370296789700        2.66583644384716       -0.43217575453165
C            1.03853790008678        0.33677428944757       -0.04019838030806
N           -2.33447898043707       -1.12702744327366       -0.11604506007274
H           -5.38690388892923       -0.43222246755324       -0.47432267542888
H           -4.48264693556755       -1.87156244887061       -0.77176387053532
H           -4.42609943502529        1.46990555401399        0.34497670255707
H           -2.59791181190498        2.88813475209764        0.78915551151689
H           -0.34141124486217        2.42659573008212        0.59090103387773
H           -0.82195573310264       -3.00775390863778        0.28634905160281
H            1.64636138397483       -3.02743781482797        0.33489630541437
H            4.09545802094490       -2.31814268443124       -0.08738010985758
H            5.10764140898704       -0.93465106474866       -0.21773038804202
H            2.72145048843404        3.13340121907900       -0.74360885193959
H            1.02386976435728        2.96980083160444       -0.86145112161858
