30
 energy: -55.724190839674 gnorm: 0.000826130496 xtb: 6.6.1 (8d0f1dd)
N           -5.81785455442108       -0.35538932253300        1.05412555988621
C           -4.72234974975767       -0.13493848378523        0.79018342667454
C           -3.39078949415863        0.16272145919852        0.47076680978137
C           -2.90402785221876        1.46446924839643        0.18618354353173
C           -1.53843932994554        1.36471222823094       -0.03040967857060
C           -0.55744905324694        2.33201440028086       -0.33903782073482
N           -0.87901470747296        3.62188537818446       -0.53818428434662
C            0.77280166968912        1.91325893814301       -0.38046983160258
C            1.17791565162311        0.59454153761827       -0.18529430843116
C            2.56006260120385        0.36539774990374        0.02759692134870
C            3.39546247101307        1.49710036249470        0.11862564322395
N            4.13172318242006        2.37779929640517        0.19733064540707
C            3.23791046262189       -0.86267456793747        0.26848108825704
N            4.45582143000937       -0.83037663825816        0.84684539539450
N            2.85779634085172       -2.07745072003136       -0.10687513279930
C            1.67507982226545       -2.45375278301102       -0.50465708845701
C            0.43218099625697       -1.81163706649338       -0.41487293130416
C           -0.62695988335854       -2.67114940122077       -0.79357542685609
N           -1.39528748705322       -3.43516710660487       -1.17172018970828
C            0.15181109446103       -0.45512357900486       -0.12298739540355
C           -1.16197389339143       -0.02454086027822        0.08038381548167
C           -2.34101878912411       -0.74409400974452        0.39927425021822
H           -3.51221169143769        2.35048223716138        0.16064177842648
H           -0.16253140505437        4.30397801321531       -0.71473686144525
H           -1.83208701470866        3.92612691957410       -0.45670058224453
H            1.53370193218090        2.66804179131684       -0.51937401922873
H            4.96726048241049       -1.69411466428406        0.90394849556149
H            4.91493644131207        0.03957293153401        1.05482787622096
H            1.65979120355780       -3.46931961781512       -0.89116604287667
H           -2.42051318782060       -1.79330444025447        0.60611068169909
