30
 energy: -54.138365327183 gnorm: 0.000930912265 xtb: 6.6.1 (8d0f1dd)
N            0.98963669173519        4.24512719156369       -0.23810623917541
C            0.52856642135478        3.19397989920686       -0.18221206011738
C           -0.08910014806924        1.93005940357397       -0.11701457045669
C           -1.48538606127211        1.87315884724156       -0.10468251578102
C           -2.07032558781929        0.63267624366865       -0.02374421286861
C           -3.40998629712651        0.12330866853622        0.02983841577561
N           -4.53898634297837        0.84840807957507        0.04191854238844
N           -3.44231567851893       -1.21602426086582        0.10124959154776
C           -2.16057931909038       -1.62974911850245        0.09115082588294
N           -1.75917145216047       -2.89670213199775        0.13660883392430
C           -1.24488512552480       -0.53508531907996        0.01555416340331
C            0.14368931853697       -0.53294651901690       -0.01124078822887
N            0.73796346552479       -1.74450868011428       -0.02917291267987
C            2.03607078313388       -2.00363721668172       -0.03644087742112
N            2.31001523277816       -3.34573823656992       -0.04872980863787
C            3.13391874437886       -1.13771408536272        0.02591098058956
C            3.09203603385305        0.25999976920951        0.06608365462346
N            4.27003433952967        0.93149186148322        0.12743283343995
N            2.05482517011268        1.08685067386038        0.00414202943406
C            0.76089495969379        0.78916347383006       -0.04744004086671
H           -2.05511292837294        2.79111771593506       -0.14851294725180
H           -4.50778403448161        1.83759056768728       -0.12430727034539
H           -5.41889542487502        0.36537369676409        0.00252892821509
H           -0.74604873403331       -2.99710742685782        0.14760743560624
H           -2.41274684460344       -3.65065825731146        0.24698825629642
H            3.23937025318731       -3.64992617167692       -0.27717144646424
H            1.55266032386793       -3.96526900369770       -0.27984082742513
H            4.11432961827537       -1.59649848032830        0.04414583180100
H            4.21470386121639        1.93056475238471        0.22423346136523
H            5.13239441864754        0.45856935384342        0.32445640282663
