26
 energy: -42.418926420262 gnorm: 0.000799779268 xtb: 6.6.1 (8d0f1dd)
N            0.23704335153735        3.32550794419995       -0.13869683695896
C           -0.22761475755514        2.01315809343549       -0.07063979765653
C           -1.59434852989073        1.79304137945173       -0.04934412954518
C           -2.08193893269687        0.50056421978449        0.03103093924595
N           -3.35712733176351        0.11082811310230        0.12926309674026
C           -3.31511060427135       -1.22385919221305        0.25890278730445
C           -2.03193867492827       -1.74838489277687        0.20304074653646
C           -1.16886091698974       -0.63877748358728        0.05111909444142
C            0.21339172326004       -0.43821873819256       -0.02931223628759
C            1.08112817960396       -1.56801094569494       -0.21007097440467
N            0.52965443121828       -2.69471482953540       -0.69725581187132
C            2.42157022873828       -1.66565116937115        0.21313990705768
C            3.25724570203921       -0.62483492643558        0.53987165798732
N            3.13285404800916        0.63276708379575        0.15920152326004
C            2.06171656376183        1.25440656865957       -0.23241026309675
C            0.69618831703724        0.93154487011836       -0.06326332950832
H           -0.49132154864557        4.00960203132347        0.00446904421808
H            1.06874450388372        3.53469540300072        0.38997212892398
H           -2.28310003986550        2.62483497617461       -0.06863779009574
H           -4.22942050701663       -1.77868351281336        0.38306567238652
H           -1.79095314781746       -2.78355916718362        0.36177909258397
H           -0.40912125421203       -2.66736811448732       -1.06014088846004
H            1.09366072304048       -3.51379047760945       -0.84027955236341
H            2.81816708716507       -2.67080910095854        0.29357968890239
H            4.20396665172708       -0.84495838939905        1.02077668666708
H            2.27710335593137        2.22369622780987       -0.67341838190707
