30
 energy: -50.123557375971 gnorm: 0.000626977949 xtb: 6.6.1 (8d0f1dd)
N           -0.21553947315676        4.50453671978413       -0.20351000731981
C           -0.04345319111578        3.36816327415117       -0.14747679732158
C            0.24298044122208        1.99303805063087       -0.08994032845166
C            1.59370414006369        1.63741657618293       -0.16315283948495
C            1.92124614173241        0.31100020143625       -0.06782528159880
C            3.14602253912816       -0.41525077207436       -0.03306532722458
N            4.39805139818007        0.09994896160569       -0.06833452159119
N            2.93111632973581       -1.72330194035014        0.13594506557832
C            1.59570261593541       -1.90725970318463        0.19300806718907
N            1.10664866802281       -3.17312272387747        0.38014703903989
C            0.88272186410313       -0.69287443162199        0.04391701756044
C           -0.48027616969467       -0.36714902662382       -0.01647505571905
C           -1.40397735143173       -1.41484954136185       -0.20598015694117
C           -2.78884895640793       -1.46563999127044       -0.15238806836772
N           -3.36965976697107       -2.69336678598482       -0.34597587192468
C           -3.66244905760076       -0.40673104414795        0.16391061309633
C           -3.33259787783394        0.92067141903795        0.31947651485635
C           -2.10663701553358        1.55384785668667        0.20249325284882
C           -0.81142962835137        1.04045488296159        0.02527442727586
H            2.34057899088227        2.41277666893459       -0.26535084236643
H            5.15119647917151       -0.55540022631169       -0.18946633617831
H            4.52400754904816        1.02858651609618       -0.43109915716005
H            1.83301974918358       -3.82856173475774        0.63362210137027
H            0.27113634436886       -3.24203145863572        0.94328851292766
H           -0.93909354375850       -2.35731785646102       -0.46741483465523
H           -2.81827598693908       -3.42070392894525       -0.76881940550330
H           -4.35968064259696       -2.72983623542201       -0.51684261362793
H           -4.70884413898679       -0.66892536823548        0.25341686125962
H           -4.16556257776846        1.58146683093757        0.52917443962538
H           -2.14670486393114        2.63328472832121        0.29138310450841
