29
 energy: -50.398941767218 gnorm: 0.000782535556 xtb: 6.6.1 (8d0f1dd)
N            5.12756957324306       -1.26227645158500        0.04959977500798
C            4.07840706750474       -0.78745006667608        0.04543770921944
C            2.85351917512054       -0.12945410080802        0.06400852672791
C            2.70586327750935        1.27918328507831        0.26606475784642
N            3.75789434729053        2.14047353014902        0.39691345907370
C            1.35918875477711        1.61361098666488        0.21899000170611
C            0.60965972922018        0.43439837487808        0.01619218119000
C            1.57033663907084       -0.67050304798071       -0.04985844993385
N            1.21946727936825       -1.94373909195841       -0.20904055959307
C           -0.05600358018971       -2.20656898770239       -0.25601161008389
C           -1.10505593101016       -1.24887793349905       -0.19128787222245
C           -2.40697550193307       -1.76558195127302       -0.16418607555031
N           -3.54845870251636       -1.23285908191484        0.18313561311916
C           -3.82065330327269        0.06131276910084        0.32345702410100
N           -5.03768539398033        0.30298911191780        0.85956968832185
C           -3.06581344121247        1.15010469184378       -0.14439129094608
C           -1.70712415526381        1.19565397979836       -0.40751845689907
N           -1.20845621116303        2.35464105898669       -0.89187079405728
C           -0.74460757286296        0.14770333297524       -0.14217701753918
H            4.65116681703942        1.72612587482968        0.60928607407032
H            3.57611338901786        3.03812754506080        0.81383159797824
H            0.98010283057575        2.59896590125235        0.42492421088575
H           -0.31643914100483       -3.25502775482851       -0.32645031106210
H           -2.49357909201141       -2.83247276216513       -0.35676452853762
H           -5.39370412199396        1.23439268559938        0.96333855058017
H           -5.60170020805266       -0.48416631360650        1.12617757114346
H           -3.60484555673341        2.08347383908614       -0.26447299130075
H           -1.83807350308658        3.07689516311070       -1.19518908394702
H           -0.25330764455124        2.37514151516450       -1.20962460029993
