27
 energy: -46.958692774282 gnorm: 0.000905788642 xtb: 6.6.1 (8d0f1dd)
N           -4.70951741534798       -2.09185276503024       -0.35227698912127
C           -3.67524968684502       -1.60103719420523       -0.24028539092223
C           -2.44932534890547       -0.94262075842897       -0.12341708949748
C           -1.18480730799951       -1.52268114744060       -0.00490516476201
C           -0.23664904011564       -0.49077931285651        0.04485406831680
C           -0.95156298313722        0.76818554672712       -0.01689398383087
C           -0.21833239664505        1.94221979810642        0.18613839378799
N           -0.80140398334391        3.15715841588150        0.34973780410573
N            1.11557052465607        1.93455718317413        0.16783238566666
C            1.80508676502485        0.80267779408736        0.06833669271544
C            3.16685233936275        0.96120864864949       -0.24875673772908
C            4.15023168856427        0.00300395313392       -0.41396870126184
C            4.09998870509788       -1.34460619781357       -0.09371797522653
C            2.99425918159546       -2.01366381737042        0.44467365789983
N            1.74172999991427       -1.66891219862141        0.47654081006471
C            1.15550256506492       -0.51125319523006        0.18097040890278
C           -2.31823671829823        0.47686256605866       -0.13746180436186
N           -3.36073993490668        1.36555004560723       -0.20825833138883
H           -0.97287668823020       -2.57366018819442        0.03018206269346
H           -0.18205229597845        3.90082508934510        0.63083221321894
H           -1.74907408675651        3.19061956039153        0.68602286093098
H            3.43729426952473        1.98668449815216       -0.46613385187447
H            5.10212959324067        0.36908057133736       -0.78077991505945
H            5.00407959856855       -1.92417883973664       -0.22056682188495
H            3.16883750602900       -3.01138080700075        0.84118552190316
H           -3.17581560409500        2.24177512898239       -0.67124567249992
H           -4.25272931553862        0.95435626399583       -0.44364384728498
