28
 energy: -51.476465230799 gnorm: 0.000737278527 xtb: 6.6.1 (8d0f1dd)
N           -5.54090404577892        0.22851602155559       -0.01778958216739
C           -4.39669850096667        0.10392242087755       -0.00967057612764
C           -2.99706202472369        0.00243048621753       -0.00557888613633
C           -2.43996910947991       -1.27498002859992        0.00733858625435
N           -1.19650720095378       -1.67969512155332        0.00938259637658
C           -0.07957075291243       -0.94617178566413        0.00897613508564
C            1.10583002140127       -1.71958218674384        0.01127187899628
C            0.99456015716453       -3.12724434131850        0.00653553285250
N            0.98411951703264       -4.27455831052623        0.00206424129520
C            2.38571801134749       -1.16039410830825        0.02114844531855
C            2.50386441933818        0.20902643731753        0.02845777443273
C            3.63438444441193        1.08311015208673        0.03867108192013
N            4.92395984347789        0.70604148863311        0.04687574294507
C            3.15029670805608        2.41011463863748        0.03932172968335
C            1.77344945428795        2.38842789158914        0.02962738223546
C            1.32960025907424        1.03839748484693        0.02277151978594
C            0.03781060433966        0.51815801739371        0.01057697353516
N           -0.95689922465901        1.41921500618100       -0.00324207058849
C           -2.25205287900628        1.23992878260563       -0.01415214143310
N           -2.96918454521536        2.38114601994353       -0.03309459064949
H           -3.14775945490468       -2.10099797237294        0.01490857532837
H            3.24453903807874       -1.81819490831450        0.02397100836317
H            5.17134313525078       -0.26704804775047        0.04247762289366
H            5.65439325876755        1.39518419060836        0.04990606151196
H            3.77260551338298        3.28608047455324        0.04616378917177
H            1.12235517958853        3.24140782441149        0.02766394548017
H           -2.47060196670563        3.25336929168248       -0.03721695500687
H           -3.97446376469410        2.36717240381108       -0.04062677265678
