30
 energy: -54.927556059443 gnorm: 0.000565980845 xtb: 6.6.1 (8d0f1dd)
N            4.88786751871188       -2.28773917874107       -0.00106798550491
C            3.87376034200730       -1.74257839507704       -0.00041326008014
C            2.63789014936720       -1.07504734251022        0.00136899871745
C            1.50905350283664       -1.90893914717059        0.00533596282164
N            0.23165045707743       -1.67947990779553        0.00368258442926
C           -0.40088059744062       -0.47157372810459       -0.00090251481579
C            0.15936595320172        0.86867738934747        0.00041252566217
N           -0.61812037597367        1.95455628921373       -0.00071595217287
C           -1.94097549498750        1.87747174953785       -0.00626169512904
C           -2.59153862415782        0.66790537637005       -0.01273057766009
C           -3.96317565603363        0.23641737715130       -0.02531113584679
N           -5.02607999412355        1.06253753391008       -0.00533861276809
C           -3.98867421333329       -1.15926183636638       -0.02517645865400
C           -2.67530168277075       -1.64402218014978       -0.01430242888641
N           -2.21530306060483       -2.89397670338681       -0.01315530220938
C           -1.78390492148313       -0.51426046965881       -0.00861225386475
C            1.54649532723966        1.19059579062078        0.00013751087819
C            1.81822061358263        2.57558867017867       -0.00215937389042
N            2.13110788562501        3.68266901993126       -0.00460005117746
C            2.67351885015625        0.34769531465132       -0.00116300317062
N            3.89203612369482        0.92645857538030       -0.00483805672341
H            1.74201044159599       -2.97390108507424        0.00938831617952
H           -2.45120956282252        2.83307826563957       -0.00480777001928
H           -4.88840692319397        2.05172986075185       -0.10973816603387
H           -5.95315882535512        0.69149778385605       -0.11498823799290
H           -4.87725216869567       -1.76289403864502       -0.03246322487103
H           -2.82605155730694       -3.69136503061068       -0.00821142949722
H           -1.19895154675083       -2.96697325842738       -0.00221227535940
H            4.72178049515922        0.35741650894212       -0.00500227889978
H            3.97192997427802        1.92968469953579       -0.00541778046064
