24
 energy: -44.570227612869 gnorm: 0.000775294507 xtb: 6.6.1 (8d0f1dd)
N            4.20357082441948        1.39825838449681       -0.61397818614620
C            3.07981246842429        1.24049616662081       -0.44286594279428
C            1.68912145901156        1.09127654411330       -0.24476318543742
C            0.91831414388860        2.25034702718903       -0.22539364857251
C           -0.43279316961990        2.13716806523580        0.02805492462680
C           -1.48063421965522        3.05766657326553        0.20053249029563
N           -2.63290184387090        2.43548733601123        0.46287214314359
C           -2.40986968548885        1.12415483758618        0.43510063391449
C           -1.05108661740689        0.82982603636146        0.16252639718237
C           -0.31321029958855       -0.34614283709774        0.02627046647620
C           -0.96408648202724       -1.59374911376784       -0.18906185576904
C           -2.34005248163880       -1.59547848733218       -0.52450122091731
N           -3.43477982686445       -1.70074247664299       -0.85097144238294
C           -0.40922735765294       -2.87871076514773       -0.22238891637666
N            0.74414818599509       -3.30365763073470        0.22909425142929
C            1.79938236077081       -2.57785390487376        0.51180441006606
C            2.05010130628650       -1.24342075896040        0.21116732396242
C            1.14132564592330       -0.20714666859629       -0.04253000206215
H            1.38874574302355        3.21235951080160       -0.36932758508075
H           -1.43012743448904        4.12938356255957        0.15347477660264
H           -3.20934426481419        0.44247527779857        0.65298158399611
H           -1.05777245129438       -3.67563185480206       -0.57616474345401
H            2.61056887404804       -3.14835716175138        0.95317388796806
H            3.08938090082191       -0.94111304163236        0.27233458202993
