29
 energy: -56.010812981014 gnorm: 0.000789631369 xtb: 6.6.1 (8d0f1dd)
N           -5.90049177760514       -0.72761462358361       -0.32568210697702
C           -4.80449570371055       -0.40091240529075       -0.24397653098137
C           -3.45525587272442        0.00730788374491       -0.13499676431366
C           -3.14823525685127        1.34068096097727       -0.48615486985461
N           -2.10226396890992        1.99613826825719       -0.10859153070293
C           -0.97438428271117        1.60641224489337        0.44868165104997
N           -0.38189969611968        2.47903489546938        1.26349459811757
C           -0.32675391989684        0.34178701557267        0.16525923680335
C           -1.10686212184348       -0.87629153022501        0.18910219707201
C           -2.50999658416397       -0.95208807757642        0.20522872395734
C           -0.42566307826684       -2.11353395746285        0.21311861032884
C            0.94497746001035       -2.22091714993700        0.07425442370784
C            1.56322585662920       -3.49046976998607        0.05091884316107
N            2.04072658818318       -4.53216671605696        0.03928971558802
C            1.70966614575846       -1.04992122866304       -0.06179448563453
N            3.02317780985066       -0.93464048907265       -0.20927810425797
C            3.28350751791908        0.38779440808356       -0.27743047921787
N            4.54108344320738        0.83618001713016       -0.41784742349128
C            2.11357238363330        1.17807136497144       -0.13023362760550
C            2.08287488546506        2.56198270591036       -0.18589353994245
N            2.07753173430516        3.71559593768785       -0.20632821624792
C            1.04880422966111        0.24782675651130        0.00914101982084
H           -3.87344076379977        1.91051364218037       -1.05646612752426
H            0.56232971081770        2.33270027866752        1.57964157643353
H           -0.77597339297802        3.40149837071004        1.35889168817485
H           -2.91085594114611       -1.94635368079319        0.37227199874029
H           -1.00967218423656       -3.01938744171188        0.28704675988314
H            4.71412696462439        1.81115123323739       -0.58690193686372
H            5.26273749819878        0.16281291995441       -0.60464348062367
