26
 energy: -47.236735885931 gnorm: 0.000486505026 xtb: 6.6.1 (8d0f1dd)
N           -1.74320648089826        3.07939367496680       -0.40325158629149
C           -1.54169570978635        1.96143335494789       -0.22014226984595
C           -1.44589462492037        0.56518014491787       -0.05196462087673
C           -2.72054204445626       -0.08519097231318       -0.11194716659133
N           -3.78402408137982        0.63002457196071       -0.53393142498657
N           -3.03923938202806       -1.30890239130507        0.27956246061585
C           -2.22523685600013       -2.31350009953829        0.51002659821214
C           -0.87216346625354       -2.44533711001110        0.27466905754582
C            0.09160849097803       -1.45749563768797        0.00651709670744
N            1.30367853034981       -1.95252419888977       -0.21408980975169
C            2.38813626610573       -1.17755618384689       -0.25715169310776
N            3.54387114802130       -1.78140567240379       -0.57367155975043
C            2.29762518798637        0.18738301550872        0.05438792962290
C            3.20158842932088        1.23206725268071        0.24915400162176
N            2.56515478225085        2.37864445845403        0.53090321606176
C            1.26022833886186        2.13318324959544        0.50149363750473
C            0.98897827334923        0.77421522864117        0.21319041555843
C           -0.16860259835080       -0.00953212830088        0.07731157866968
H           -4.68754569195658        0.19333905249576       -0.47193071565663
H           -3.71117982416130        1.61053073272943       -0.74449434379810
H           -2.74872062156090       -3.19292909176668        0.87448006724283
H           -0.45542038073348       -3.44011455714419        0.35759935330301
H            4.40883916326302       -1.27306928294985       -0.55772116403746
H            3.53900602468884       -2.77120599158703       -0.74799664273352
H            4.27588691121295        1.20371536255555        0.21210127359396
H            0.56505939949716        2.91987914518994        0.72065101026745
