26
 energy: -48.031249808143 gnorm: 0.000806949459 xtb: 6.6.1 (8d0f1dd)
N            5.54723667590063       -0.49727369918423        0.81453885026309
C            4.47101160414967       -0.17068171755116        0.58563046256309
C            3.15951679460754        0.24365636301736        0.31018636808541
C            2.77826040351790        1.57297483104496        0.02054019697550
C            1.39936996990539        1.58177823378981       -0.15855139087867
C            0.48490387193101        2.58247797204585       -0.48308674150915
N           -0.80389635700376        2.36982474368154       -0.51457387364393
C           -1.31197228751700        1.13897747022885       -0.27675724814197
C           -2.68458601659047        1.15974303254885       -0.10151882868848
C           -3.58260148829568        0.11150414456159        0.20258369355088
N           -4.80859483886937        0.44373543222815        0.65037552801931
N           -3.40784207358711       -1.19080955167751        0.01741281352701
C           -2.29025563959122       -1.79952653268124       -0.28838004184962
C           -0.96074152583677       -1.36556309654641       -0.28202921676917
C           -0.05919622545769       -2.43121685581535       -0.51571065058466
N            0.59146534042144       -3.34722832416825       -0.74948962569180
C           -0.45063922195298       -0.04578017767917       -0.15156674033897
C            0.91073803361919        0.22237902134754        0.00027109524238
C            2.03482424528430       -0.58270879315052        0.28986900618021
H            3.44063926014812        2.41599649999999       -0.04181649963635
H            0.80322647245976        3.59553071130571       -0.69710970663646
H           -3.10916044877278        2.15525690290850       -0.14524768442009
H           -5.47435174639275       -0.29277125744049        0.80902804665522
H           -5.08806469102573        1.40236124629419        0.75105724176595
H           -2.43893306386621       -2.85282277108471       -0.51329869935512
H            2.04383345701456       -1.63473808212376        0.49744151331656
