27
 energy: -47.751957299572 gnorm: 0.000572672374 xtb: 6.6.1 (8d0f1dd)
N            3.98817501679182        0.45277387173211       -1.08970751148686
C            3.05797613488719       -0.01363365598934       -0.60419233946557
C            1.94042689102662       -0.73901505512437       -0.12488612102980
C            2.18055901780600       -2.10574356025292       -0.05946418905082
C            1.29826939303041       -3.12845315583489        0.26037118700223
C           -0.07355107949198       -2.99792894197929        0.44717720449314
N           -0.87375049236776       -1.97568245468021        0.28136373376167
C           -0.58416034857187       -0.67597392541000        0.09015912017966
C            0.72095724354262       -0.02105109662752        0.10655662422153
C            0.76183544948900        1.37623007585516        0.22327151305732
C            1.96149880437481        2.05936968323988        0.52282418823881
N            2.85275010120963        2.69610353406352        0.86684699514275
C           -0.38764022263594        2.19496430231481        0.13363027082236
C           -1.59844819961771        1.60214127880831       -0.07733398881370
C           -2.92775559935110        2.10469525776506       -0.20711005940282
C           -3.79670508621629        1.04599650359772       -0.26475018956726
C           -3.06283954069116       -0.17016330090958       -0.16881273466157
N           -3.52636043043310       -1.42262312373159       -0.16280846120247
C           -1.68567680192253        0.16166239831621       -0.07469555776695
H            3.20291598093722       -2.40054578473069       -0.26831636217831
H            1.70790889126860       -4.12499198783364        0.34356466804589
H           -0.61049092764988       -3.90359556049941        0.72438837873184
H           -0.27453089333450        3.26542335609950        0.22274244981630
H           -3.18898171236865        3.14603934653868       -0.24068197346067
H           -4.86526702836399        1.10466162994606       -0.36373842994246
H           -4.51146711774206       -1.61856159003080       -0.12901151353951
H           -2.82598694150533       -2.13562042094273        0.01600894115533
