29
 energy: -50.429577596451 gnorm: 0.000489848014 xtb: 6.6.1 (8d0f1dd)
N            3.63329777353281        3.23592193625560       -0.01639406849098
C            2.77789068061725        2.47078140284753       -0.00852463072260
C            1.70394405590584        1.55929962513598        0.00317918819156
C            0.39436801998014        2.01262620664683        0.01646584517006
C           -0.73535401676382        1.17292791855133        0.02398526625871
C           -1.97185597203936        1.86535682752973        0.03296665714080
C           -3.26327190945586        1.44122632876156        0.02267872119684
C           -3.75733043889207        0.11376291670407       -0.00203911698292
N           -5.11026235243619       -0.01964126908266        0.00518133101815
C           -2.99682672425341       -1.04005378332984       -0.00332258156261
C           -1.60807280725398       -1.24389461057080        0.02139113634153
N           -1.20353754512938       -2.51517464302976        0.03473594972448
C           -0.55694576973498       -0.25553618314486        0.02493672376829
C            0.76855499022234       -0.70838384695780        0.02242435456723
N            1.25670289569951       -1.97696581077063        0.03234948751153
C            2.59116166276158       -1.81741874803755        0.01344036045005
N            3.44198101885774       -2.86923821584073       -0.04510365887949
N            3.03430418854927       -0.55032180355518        0.00006703736178
C            1.91202201085802        0.17626378910876        0.00464752351794
H            0.23513217953504        3.08215703737817        0.01797801095152
H           -1.85737514247648        2.94350467823276        0.04567532437459
H           -4.02613297233238        2.21031191058751        0.03071064359575
H           -5.69538806940494        0.78914362554424       -0.10163155511977
H           -5.53057050431845       -0.92429066488266       -0.11004098880596
H           -3.57323399720417       -1.96080609025024       -0.01940981390662
H           -1.87750318785866       -3.26087319322215        0.01702287748769
H           -0.17629303854656       -2.68450053302465        0.03092541804066
H            3.08634333903025       -3.76529537484242        0.23896963284455
H            4.40471013835093       -2.66195362004212        0.15678370965723
