33
 energy: -58.081434592874 gnorm: 0.000579109153 xtb: 6.6.1 (8d0f1dd)
N            4.86983385668775       -0.59824537606243        0.09905183403787
C            3.81220237057164       -0.14278116928235        0.06655825451306
C            2.57683965859617        0.49406492214854        0.04515859642054
C            2.40952321210791        1.91300844716796        0.13452158182508
N            3.45008740247647        2.80028619760841        0.16983888218916
C            1.05763347529584        2.21685065774877        0.09052696242749
C            0.33082755226851        1.00922199085990       -0.01155064795723
C            1.29923191109409       -0.06794871235552       -0.01410422490067
C            0.84797978052680       -1.39212787608093       -0.03373264492315
C            1.76424649077501       -2.46030535146997        0.02937745629855
N            2.45115539024969       -3.37968255764652        0.09110905555953
C           -0.52152958551653       -1.67713204862393       -0.05926449327287
N           -0.91628003440339       -3.03754728032890       -0.03243056392240
C           -1.49036965947831       -0.63957924820984       -0.09026352428206
C           -2.88729327953243       -0.98105558243092       -0.19004736501932
N           -3.22732049455483       -2.12330849661871       -0.81546256204598
C           -3.93409102240909       -0.27150783084856        0.42850090401742
C           -3.90173581662858        1.03874493165843        0.84859087809045
N           -3.09874664930026        1.97456359748893        0.39538509778660
C           -1.96291027955463        1.82564246391101       -0.23819739823651
N           -1.59221628955560        2.84288998431771       -1.03006326691418
C           -1.03212156042505        0.72414847945182       -0.07123224049603
H            4.35148887684653        2.41799060883529        0.40857419349735
H            3.25777542268713        3.72069571456548        0.52920233468619
H            0.65537627241191        3.20747525879847        0.20078750630193
H           -0.10423102475458       -3.64489592153654        0.01153738507499
H           -1.54227174171469       -3.25115433703046        0.73628689220159
H           -2.49846516889497       -2.75241163107407       -1.12362255412424
H           -4.18229566267543       -2.43717444286287       -0.79414613864050
H           -4.85330587804076       -0.82285417914120        0.58246553043227
H           -4.69551512652433        1.40852093253468        1.48726178163142
H           -0.68639865925424        2.83910077232763       -1.46587236903322
H           -2.19067984697888        3.64766087438110       -1.10084575602343
