25
 energy: -39.520132657135 gnorm: 0.000519062383 xtb: 6.6.1 (8d0f1dd)
N           -5.18718707911886       -1.21569222959855        0.00112251078421
C           -4.12981609053951       -0.76614165366313        0.00126131232033
C           -2.84072753384972       -0.21876060865934        0.00039765588200
C           -2.53950515261994        1.15513953439921       -0.00042666952022
C           -1.15147870754390        1.27722620764786       -0.00094439898325
C           -0.31401981231231        2.38531785929851       -0.00177260207382
C            1.04863169197858        2.19908840428529       -0.00209184234511
C            1.66090093363238        0.92946659558014       -0.00160113404750
C            3.06524674424360        0.92999089344676       -0.00202185206878
C            3.99546071321180       -0.09201738628577       -0.00176871173662
C            3.78210184637341       -1.46166574142693       -0.00099239599867
C            2.55923569025833       -2.11920462532881       -0.00028146439470
C            1.28632214229371       -1.58653479815639       -0.00017209244747
C            0.81710439305363       -0.26139986961845       -0.00072173371462
C           -0.57465233472334       -0.05861174766095       -0.00041788954303
C           -1.64975260924553       -0.95990014316442        0.00040678365625
H           -3.25610453598942        1.95497484648126       -0.00056699370605
H           -0.72879410649921        3.38323333833403       -0.00218250668740
H            1.69279558669071        3.06688486641891       -0.00277613802391
H            3.49786066476840        1.92483811477725       -0.00267967773379
H            5.03183967246257        0.22296355997980       -0.00223432117790
H            4.66501786425710       -2.08748644602196       -0.00091227133457
H            2.61034374787711       -3.20130112176569        0.00028493753314
H            0.49491417736971       -2.32459690483547        0.00045374620860
H           -1.61314610012931       -2.03373547196309        0.00101333505290
