30
 energy: -54.923324997524 gnorm: 0.000735416808 xtb: 6.6.1 (8d0f1dd)
N           -5.25057368266487        1.32990852914129        0.41464366193265
C           -4.23210611796277        0.80706777258651        0.29840515692164
C           -3.00213596200810        0.14215448503499        0.14109325966203
C           -1.85921435879396        0.95128638225989        0.15400064285620
C           -0.51822677928129        0.64492713221516       -0.00790347228049
C            0.42065764826521        1.72562464416228       -0.08739782873828
N           -0.00433557210266        3.02959874433023       -0.14510442778035
C            1.80124470907854        1.49199148410048       -0.06197090863564
C            2.70000726065946        2.56912353029301       -0.15061011365816
N            3.42795476016853        3.45518847888023       -0.23708042025464
C            2.30491809494672        0.18244343692372        0.02518645205249
C            3.55905016031002       -0.38253411062341        0.07603645496370
C            3.32682367647426       -1.78458969849984        0.11083182825704
N            4.27048161924420       -2.74641581964822        0.13011924243710
N            2.02110662566780       -2.10421076080991        0.08161421180818
C            1.36225186574119       -0.93469720491606        0.03363055275417
C           -0.01633863061424       -0.73355719372596       -0.00754152634615
C           -0.79842130455533       -1.90221334057601        0.01658223909113
N           -2.07554481654103       -2.14403100781726       -0.08506815546962
C           -3.07260032639281       -1.25755565017058       -0.09820444027123
N           -4.27683546817141       -1.81262128318998       -0.31796124556806
H           -2.09721246396756        1.99675995612346        0.31353172182463
H           -0.89766852341897        3.24656539651438       -0.54958838355993
H            0.71581373742640        3.71893469084859       -0.29630462137438
H            4.51252687449261        0.10685414687966        0.08598796957080
H            3.97102839448377       -3.69483331077086        0.27174895488745
H            5.22608325040998       -2.50190564615362        0.31582815551273
H           -0.20036998251147       -2.80657596719616        0.09776330555861
H           -5.12053621972270       -1.26505264915535       -0.29084500505090
H           -4.31763119346036       -2.80910943413990       -0.44713760760382
