31
 energy: -53.051799516428 gnorm: 0.000789724179 xtb: 6.6.1 (8d0f1dd)
N            4.18736986278984        1.96336471387441        0.00469402282596
C            3.13211589130497        1.08914070498263       -0.01398208430025
C            3.44544217476191       -0.27764497730134        0.00484864727116
C            2.54059331273925       -1.33998108141697        0.01780391350878
N            3.07163781225289       -2.60951794429078       -0.00795713496144
N            1.21691717349052       -1.33814866122414       -0.00425770588572
C            0.40104173615624       -0.26526449969063       -0.00828988531248
C            0.74098778987581        1.15788237975726        0.03410533029478
C           -0.29585285004376        2.09524796879056        0.06170353741864
C           -1.65686522989138        1.79241562602454        0.03426965954543
N           -2.60210882536516        2.79357681126708        0.06849619332873
C           -2.00255539364420        0.44225426915763        0.00772983052996
C           -3.20244320177212       -0.31088747330850       -0.00960295091111
N           -4.48302927050587        0.16928151264839        0.01726399052275
N           -2.97612872116562       -1.63617677256739       -0.09683536581625
C           -1.64321622717479       -1.79041898603634       -0.10916258659377
N           -0.99973031233781       -2.95944511381312       -0.16102997487933
C           -0.95995109834366       -0.53680068828859       -0.03230559023956
N            1.96627585287965        1.70709708608587        0.01039326628677
H            5.09541143843497        1.64607845956522       -0.28485629842468
H            3.95332861617574        2.92721554269822       -0.16172790979651
H            4.49769481981248       -0.53446007168331        0.01094444412167
H            4.02647921714184       -2.72703292799980        0.28362979986446
H            2.43912430018976       -3.35714350181131        0.22365298722742
H            0.00584302707415        3.13311384957571        0.08091387192909
H           -3.48007816235526        2.58303336768786       -0.37936730669660
H           -2.25128483456496        3.72009124139651       -0.12077716925480
H           -4.63267021629915        1.00065088660955        0.56760439106638
H           -5.17363679118208       -0.55448402625975        0.15216067041819
H            0.01100827028679       -2.85716484358786       -0.20730245981924
H           -1.49492170742073       -3.81846630074158       -0.31660362316836
