29
 energy: -51.198709964090 gnorm: 0.000929009384 xtb: 6.6.1 (8d0f1dd)
N            2.62720282295926       -3.90599050394463        0.12833851647642
C            2.28343041817205       -2.80925294259777        0.12281604132059
C            1.93717570200247       -1.44037948716825        0.12143580826054
C            3.00811353276071       -0.61371760233679        0.47277679838502
N            3.15846958362315        0.68061331369085        0.40559623001037
C            2.24792158431556        1.57185877707568        0.00469704241021
N            2.80277689899543        2.77592063823037       -0.25210545697193
C            0.84198987906403        1.42733231815638       -0.10173913428377
C            0.20148268178915        2.62439923128221       -0.46743533931161
N           -0.19626295918336        3.64469509279507       -0.82661512976095
C            0.04088510480375        0.25008552329531        0.01747139202360
C            0.57004437715669       -1.09985231501994       -0.10333036998147
C           -0.30938185319897       -2.15537700852595       -0.36783285092959
C           -1.68480799155484       -2.00427324592551       -0.38601990064142
C           -2.21497678810508       -0.76773631591183       -0.08933575911547
C           -3.55791756398748       -0.31270939588166        0.06126960780279
N           -4.66873055074111       -1.06145861757277       -0.07449626200340
C           -3.50770600602566        1.05234639088084        0.41016922278375
C           -2.19306997370020        1.46057375142907        0.45204380574699
C           -1.34702192571333        0.36009859637583        0.13043407807343
H            3.90764544443530       -1.12342169468293        0.81076349559881
H            2.24982274335373        3.57052012362470       -0.52160885076232
H            3.79517762073596        2.86262476053227       -0.12073786777683
H            0.11068846104585       -3.13630886271475       -0.53231339766270
H           -2.31365273960680       -2.86001675314847       -0.58871942101390
H           -4.60398567366703       -2.01956080905495       -0.36668780957390
H           -5.57538174833948       -0.63719998606928        0.00330993623768
H           -4.36536643093403        1.66496364431245        0.61761680355769
H           -1.87005251395588        2.44476602007434        0.73062210650208
