28
 energy: -45.868985318175 gnorm: 0.000570097143 xtb: 6.6.1 (8d0f1dd)
N           -4.02705829065768        0.38105090121531        0.16030670138199
C           -2.80847019378581       -0.25701922883778        0.06631692697875
C           -2.61454408691079       -1.63634658247427       -0.07332959959450
C           -1.25121828365720       -1.91152905498139       -0.14828229201961
N           -0.71072945896600       -3.16699192131701       -0.29186336559233
C           -0.53802474539159       -0.67879927715393       -0.03321843580404
C           -1.54293297856190        0.36555764795315        0.03722406779797
C           -1.11321455798576        1.68657256442905        0.03912031668107
N           -1.97176862734670        2.75287548074581        0.07656929755984
N            0.18484857511348        1.99903826987589        0.01192606064822
C            1.12829627588297        1.06171387227377        0.00435614800062
C            2.43409548748404        1.57998983975944       -0.13499615885265
C            3.65279351135408        0.93492872119174       -0.23111971889833
N            4.00420055911536       -0.31636919948304       -0.01350436132568
C            3.15942218488015       -1.29060262697499        0.30751037889824
C            1.78802736894074       -1.36439104149269        0.29766078079355
C            0.81297596353090       -0.36149986869685        0.04892943996825
H           -4.79980641296562       -0.23468308966674        0.36821171850332
H           -4.02703766653876        1.21965176085760        0.72226283233761
H           -3.39895425841933       -2.37129073792087       -0.11489385897377
H           -1.37010890679326       -3.87649696773544       -0.57579381127264
H            0.17356329372682       -3.21470368143192       -0.77522291144229
H           -2.87066885351734        2.62948780345139       -0.36034160043353
H           -1.52051103911131        3.63924850094578       -0.09238805185337
H            2.44902350573351        2.65663587413937       -0.24659382313831
H            4.50541103020335        1.56279181990787       -0.48158403630739
H            3.68425702944056       -2.20370390419120        0.58200151954676
H            1.37947618230312       -2.32561272588860        0.57987147461260
