30
 energy: -54.944862311111 gnorm: 0.000876424147 xtb: 6.6.1 (8d0f1dd)
N            2.73368524773157        3.38606677361399       -0.59217454183444
C            2.01811012936580        2.50706087635557       -0.41010331535643
C            1.09622562371228        1.46561505755288       -0.18256077908211
C           -0.25807943054916        1.77159793468956       -0.07341179002668
C           -1.24381245249996        0.79832375971040        0.11503491679669
C           -2.60003927467001        1.22131731549292        0.33552480940820
N           -2.81432725014647        2.44370930801747        0.85637890269418
N           -3.71048537309600        0.59296060570394       -0.00045444484014
C           -3.93346346488986       -0.67722436436776       -0.24600443370353
N           -5.13753791060526       -0.95291330629146       -0.78516899411908
C           -3.09200009317305       -1.77261830844108        0.10562073106722
C           -1.75018362375134       -1.69683918969854        0.31201721344220
C           -0.87289323681352       -0.59055481909419        0.18691532498111
C            0.49522239431171       -0.88961212528085        0.15594767836107
N            1.05817514732822       -2.10926961033086        0.25676849138387
C            2.37806541411206       -1.91938448688943        0.13998150297076
N            3.24996339828327       -2.94958067578864        0.15731705343254
C            2.72666763329482       -0.54620454418989       -0.04743027459624
C            4.02572133271918       -0.07128362451182       -0.17456594854251
N            5.12825408786955        0.25023535199978       -0.25894113232047
C            1.50336172174258        0.13488244295766       -0.04069214129157
H           -0.54451242460166        2.80752192387572       -0.19265772475647
H           -3.76333118400716        2.75087448613275        0.97965323886558
H           -2.05596479878072        3.01952462432102        1.17243263348185
H           -5.40711257930583       -1.89596890904429       -0.99584831867066
H           -5.73874964294376       -0.19232885165274       -1.04906761225004
H           -3.56547492220129       -2.74445983216600        0.14321710812134
H           -1.22114020030035       -2.62161279663814        0.50689637939001
H            2.90975727194089       -3.84990525570490        0.44434522525958
H            4.23183912562274       -2.75048021202974        0.23736070943453
