31
 energy: -55.450272191478 gnorm: 0.000121390118 xtb: 6.6.1 (8d0f1dd)
N            6.01957286875893        2.13947706728877        0.00060882321231
C            5.05599407163830        1.51408983921208        0.00057659432201
C            3.87449620532758        0.76190636078604        0.00054602489001
C            3.79031642721289       -0.63581347904785        0.00017484427638
C            2.42955095245293       -0.97309384831183        0.00013939382017
C            1.78868782436039       -2.19934590777783       -0.00022217472298
C            0.40215380899025       -2.23964557729282       -0.00032476415576
C           -0.19995629526672       -3.51386416229065       -0.00070775399983
N           -0.66429411372257       -4.56521812030414       -0.00132295154285
C           -0.41504153483644       -1.06411493731337       -0.00006480824819
C           -1.78547554495966       -1.27621538445702       -0.00053969721261
C           -2.89883302146964       -0.42363467456973       -0.00055215932893
N           -4.10816271109178       -1.03385657128663       -0.00156971315125
C           -2.88706233054152        0.98761970379782        0.00045949405524
C           -4.14621733419475        1.61907733585686        0.00021027384495
N           -5.17472404463481        2.13495059931826        0.00027087080049
C           -1.75974733893562        1.84284179757091        0.00163552330432
N           -2.00477718439961        3.17668410552034        0.00296757985053
C           -0.41403047328605        1.46413306182993        0.00150958599638
C            0.24178907696811        0.23858687599733        0.00061752982535
C            1.65721167397255        0.24843974814898        0.00054030979867
C            2.57621935204842        1.30530306914101        0.00078402885508
H            4.61832021416019       -1.31949896947768       -0.00006635174141
H            2.35050704877452       -3.12282217302234       -0.00046952227216
H           -2.06729572592765       -2.32466448086320       -0.00114389205574
H           -4.95747156316284       -0.49594468889416       -0.00158744522307
H           -4.16882772463343       -2.03614564998542       -0.00222835367283
H           -1.24493609618010        3.83231303102379        0.00346771541148
H           -2.94669084016287        3.52763628849232        0.00278486628364
H            0.25674980992126        2.31438127666598        0.00228116049866
H            2.37434139321971        2.36092522054426        0.00101318218197
