29
 energy: -51.998712000241 gnorm: 0.000820287820 xtb: 6.6.1 (8d0f1dd)
N           -5.61972704862255        0.51229657388763       -0.41437318019971
C           -4.48043383397783        0.46304008768177       -0.29242684001026
C           -3.07337822036390        0.40341936953024       -0.15316916135146
C           -2.37534976163877        1.60686240759081       -0.31856205794772
C           -1.03131891254832        1.83961928253414       -0.16873804152790
C            0.06440522067233        0.96900603672725        0.01692557805209
C            1.32468512092758        1.58406926212195        0.14392386560713
C            1.42973341989063        2.98282599611981        0.25890427033698
N            1.60247330135746        4.11476226219000        0.36562633761904
C            2.55326493924502        0.86864865575309        0.14009352026616
N            3.72012078232100        1.51736880909920        0.28943757998780
C            2.48558758823856       -0.51012914556284       -0.07114214727711
C            3.47980997783273       -1.47723265323855       -0.23884316375738
C            2.85180750194344       -2.71088539736993       -0.44581422936773
C            1.48140335173759       -2.54719532845167       -0.38132104795695
C            1.20239084697461       -1.17774839563397       -0.13482706079116
C           -0.00086959598991       -0.48988140722029        0.02669314378325
C           -1.20198563367583       -1.21286892737147        0.28650558139245
C           -1.08380163137188       -2.54081146014698        0.77555789385035
N           -1.11363751047335       -3.58456958145100        1.25124786407554
C           -2.53449591667154       -0.83197493136737        0.19980336852281
H           -2.98822348732621        2.47115614879999       -0.54419458369531
H           -0.74575834344473        2.88203324768563       -0.25719173306971
H            4.58444119724033        1.00844498698504        0.25121968826819
H            3.73892307766580        2.51691822278018        0.40478998036884
H            4.54225675617192       -1.31303168830399       -0.23146867802323
H            3.35886216690191       -3.63928229266157       -0.63281151262305
H            0.76038674611033       -3.32352225601041       -0.54570634641383
H           -3.25542543382642       -1.61362556849669        0.41651856878186
