30
 energy: -54.924075907402 gnorm: 0.000916644980 xtb: 6.6.1 (8d0f1dd)
N           -4.45573482326179        2.41587629509261       -0.44275700741007
C           -3.71095918941563        1.54698577827557       -0.31730595964733
C           -2.81368169944592        0.47799342402822       -0.15460520392971
C           -3.37058045831964       -0.73247368928265        0.36505399526195
N           -4.54554495393273       -0.66516858080541        1.01867702526994
N           -2.91008635651967       -1.95155254265233        0.16542865454117
C           -1.71718248708955       -2.31431276880138       -0.23522051669479
C           -0.50662344160119       -1.61652573745421       -0.23630481089156
C            0.67615476769336       -2.40492030805581       -0.30271659314261
N            1.89502224456121       -1.95396574717373       -0.22584603617570
C            2.04910532307154       -0.64439364123615       -0.04669766885904
C            3.23216616186558        0.08003874363510        0.09146940831749
C            4.54345242865426       -0.38565953233212        0.09105754983573
N            5.65178021627765       -0.69634498042655        0.11193543630809
C            2.87204044377489        1.45333164115475        0.29475087600909
N            3.77842819145717        2.45315562439871        0.45081778778589
C            1.49006008925867        1.58248390828437        0.22392000498629
C            0.93089399706614        0.30688848526174        0.00780552583288
C           -0.36389933844530       -0.18079017436768       -0.16522754377439
C           -1.46112833654154        0.71648044637670       -0.44437962007915
N           -1.14225745551801        1.90747602112869       -0.97721256450952
H           -4.98956268128864       -1.52772927885203        1.28222432663891
H           -5.05054172801989        0.20139861726410        1.09138878199093
H           -1.66586069029087       -3.37114209103955       -0.48124327919445
H            0.57635971154812       -3.47869298070249       -0.39391826960875
H            4.73095118270687        2.19065734708629        0.64284028844192
H            3.46397607657048        3.33713623293587        0.81204957981321
H            0.96468388803165        2.50060485008768        0.41929392991057
H           -0.18836282969049        2.08893084709873       -1.24324740184088
H           -1.86403991785774        2.56990039977445       -1.20883896718512
