26
 energy: -48.041730879447 gnorm: 0.000406719764 xtb: 6.6.1 (8d0f1dd)
N            4.98186332781120       -0.21202910551752        0.12273915761846
C            3.88462997737782       -0.54642241247574        0.05352702689641
C            2.56071189180508       -0.97517650599869       -0.03950080625217
C            2.11243197854355       -2.29744495122172       -0.21437928023509
N            0.78546491730527       -2.40088876848270       -0.27133728058782
C            0.30337422560114       -1.15274518126568       -0.14136168844031
C            1.38406956764709       -0.19897460470238        0.01451922062915
C            1.07908867757367        1.15110881713314        0.18259804439655
C            2.08336303272271        2.13001617991604        0.35545651197090
N            2.86696097776238        2.95550705962120        0.49237581940211
C           -0.25639774727137        1.55115319248866        0.14188352770522
C           -1.30799623544800        0.64418563702550       -0.00480356116384
C           -2.65045010720043        1.14647205787696       -0.16882149599791
N           -2.83239922878081        2.34267069639128       -0.74774791168735
N           -3.74379308758321        0.59020832190573        0.31417173897924
C           -4.03599473500754       -0.64886335708299        0.56272759792901
C           -3.33251457261950       -1.78970153588508        0.14137781097084
C           -2.00238656633767       -1.80676898206383       -0.18550667812589
C           -1.04602025063729       -0.76535845080210       -0.10105571764280
H            2.73071119046717       -3.17257825626223       -0.30263581963366
H           -0.47237110168997        2.60335860490001        0.26414445335328
H           -2.06298481035053        2.86699134842275       -1.12410592605888
H           -3.76743239197512        2.70635530789341       -0.82394447507875
H           -4.97417275377458       -0.78505564897770        1.09078479215012
H           -3.86693017240835       -2.72905500214730        0.15443545871532
H           -1.55185319493442       -2.76485241458891       -0.41614884001322
