26
 energy: -48.826847288618 gnorm: 0.000987350134 xtb: 6.6.1 (8d0f1dd)
N           -5.55969686639661       -1.11390316963636       -0.11903487075482
C           -4.50128753348467       -0.67705475411185       -0.08393570173319
C           -3.19188812014430       -0.13722322880821       -0.04927098711845
C           -3.04615899468961        1.23465505708587       -0.34180429301206
N           -2.04202492453233        1.96521612142274        0.04490700150100
C           -0.83782678678060        1.68356967152521        0.40789431763434
C           -0.09750382460565        0.49234852464227        0.12999264788124
C           -0.75120211364299       -0.80513071983288        0.12410347417903
C           -2.14218882010958       -1.01438069632978        0.19713166803829
C            0.05298028607477       -1.96154339826822        0.11909975435615
C            1.43237651422451       -1.91380551436355       -0.00408203994799
C            2.17959635877493       -3.11317468781980       -0.06270605243994
N            2.78607106704765       -4.08444964238849       -0.10885185620119
C            2.08215788256826       -0.67440307050705       -0.06870560685842
C            3.42602638407209       -0.30895443928077       -0.15500365759950
C            3.49684684075394        1.08272583879089       -0.14281468672981
C            2.20675254681038        1.62143049560367       -0.03233055047353
C            1.90600934427718        2.98402635237481       -0.02899240745275
N            1.67098879526927        4.11016248472430       -0.02718058525355
C            1.28440832570252        0.53658510858325        0.02259372347946
H           -3.86074097194864        1.76840640603877       -0.81714438736013
H           -0.30919609634523        2.49492746307438        0.89724994200065
H           -2.43928715926139       -2.04761911707827        0.34605984429752
H           -0.43012973914508       -2.92633142744497        0.17574945725801
H            4.25805622349858       -0.98494019577963       -0.21540608191436
H            4.39688565091362        1.66661423698249       -0.20642451717529
