30
 energy: -55.733687824098 gnorm: 0.000576414481 xtb: 6.6.1 (8d0f1dd)
N           -4.18063757694468        3.03097423291484        0.24962714504577
C           -3.61044049651620        2.03715081932194        0.21648399341084
C           -2.93717870143309        0.79313083802828        0.17241446210747
C           -3.68928505286838       -0.34134660956955        0.52776105185017
N           -3.41019918121346       -1.57727311182273        0.24215431571898
C           -2.29705710988160       -2.12246128130718       -0.20410254351947
N           -2.46366127245827       -3.30298383166280       -0.82262881501196
C           -0.95181396382769       -1.64977952416311        0.02465129097166
C            0.05973990573034       -2.58696765802401        0.20563830195072
C            1.39985033131690       -2.23172735826848        0.28739416351102
C            1.75172092167440       -0.91162923448994        0.10456995879569
C            3.02098869883294       -0.27754162622948        0.08361743350755
C            4.25900856837782       -0.89644303209036        0.23075337057078
N            5.29065458016594       -1.39256979622461        0.35064719482952
C            2.81086477390777        1.09715267480313       -0.10995737453300
N            3.75861260490727        2.04829681388046       -0.21756055456904
C            1.40343002347601        1.33318442914575       -0.21328942399550
C            0.89952500646260        2.61668410595723       -0.40350224890915
N            0.56360878679426        3.70803028445101       -0.55932459254854
C            0.73542261701591        0.10066035041404       -0.09039700997344
C           -0.63930123695468       -0.23680914589160       -0.06032418112154
C           -1.57830763090195        0.80075651569063       -0.13243010539232
H           -4.64978028762520       -0.19250011709012        1.00991664755377
H           -1.68378159399104       -3.81047883807915       -1.20074444259182
H           -3.39905698309087       -3.64917152957728       -0.95524229345393
H           -0.20498822341425       -3.62830582527131        0.32045839063858
H            2.15660066421116       -2.98224011412064        0.45963721121397
H            4.72385102682191        1.81188549849056       -0.07137123395637
H            3.49278860998916        3.01532360610205       -0.28215863225186
H           -1.16534545907374        1.78346270687649       -0.32797140814277
