28
 energy: -46.679774970084 gnorm: 0.000497434156 xtb: 6.6.1 (8d0f1dd)
N            3.58955836643369        2.41127024745755       -0.46609804016043
C            3.10969507959519        1.37301003884682       -0.31918981747730
C            2.57834632914957        0.09902629092541       -0.14500543951129
C            3.39065710530204       -1.06665860127760       -0.04756995905333
C            2.59470474206761       -2.17101809804061        0.11357690246144
C            1.24684504906648       -1.73953102727913        0.12272306324806
C            0.06784414496800       -2.42751664424796        0.29351706739138
C           -1.15447676631940       -1.75650146591035        0.21884861331170
N           -2.33978084313783       -2.51148943859881        0.28878783911248
C           -1.19993781030400       -0.36962527556657        0.01942517617366
C           -2.46032749091923        0.26850606220194       -0.31739332845197
N           -3.30812050855967       -0.39979504257540       -1.12030783607044
N           -2.90550932314658        1.41379324557700        0.13736696679179
C           -2.24694907896187        2.46448477320093        0.56005437634205
C           -0.90392742362459        2.74392984714857        0.33240160963424
C            0.06656249362700        1.82011670009212       -0.00502995933784
C            0.01202873998607        0.41240510319057       -0.01736335966803
C            1.23163326257500       -0.30091985564861       -0.04772563898038
H            4.46471059631345       -1.05239961523176       -0.10253942771229
H            2.92308811798399       -3.18792184373091        0.22152631517643
H            0.07432836534054       -3.49821605577984        0.44974357222619
H           -2.17166701428019       -3.45136795703205        0.62147079756137
H           -3.08186444373912       -2.06879752003807        0.81380810123934
H           -4.19764406754222        0.01799683652959       -1.33388020667114
H           -3.11482799501485       -1.35231716265764       -1.38060550050993
H           -2.87141816948536        3.21454820666323        1.03230021310443
H           -0.58291776317675        3.76675378374062        0.47264626035690
H            1.06024400230243        2.22597626594067       -0.13998678552593
