29
 energy: -55.212475679550 gnorm: 0.000531408564 xtb: 6.6.1 (8d0f1dd)
N            4.57295567526970        2.03964314080850        0.14333265909835
C            3.61274294644911        1.40580053252385        0.12675712956732
C            2.49462761144779        0.57616922124934        0.11944600355996
C            2.55886665913931       -0.85217911589064        0.18375010255747
N            3.70330626492331       -1.56305894042387        0.23550754150023
C            1.25748236218103       -1.37590270317637        0.12478933857174
C            0.95306601667819       -2.72737976372416        0.19816800437272
N            0.71279015900462       -3.85578865029222        0.23092346905067
C            0.34415252019359       -0.27444428951327        0.05324454632692
C            1.14806449909773        0.94074322810025        0.06532790380742
N            0.62403693419829        2.16036105847223       -0.01175456282117
C           -0.68000432229730        2.28940142586260       -0.07713380430679
N           -1.12556716721065        3.57536403902028       -0.13118321679750
C           -1.60226613888741        1.17328909012813       -0.07172390471821
C           -2.97802627966172        1.40597333840702       -0.11566976660987
N           -3.94886695610128        0.66927961536005        0.39294641126473
C           -3.84428636295770       -0.58651967586868        0.73952224091361
N           -3.06102641478008       -1.48954585446768        0.20172200795070
C           -1.89857500302026       -1.28754197925857       -0.36584792524987
N           -1.47729645574700       -2.18468147585143       -1.25462206131249
C           -1.02196331614484       -0.15560823860905       -0.04589579681415
H            3.66505842839451       -2.55480172662936        0.39495663178576
H            4.57306346298884       -1.08016822625965        0.37987557764763
H           -2.05902824572376        3.81132719439723        0.15106411500315
H           -0.40902219793365        4.26519875623270        0.02873480724167
H           -3.32854510244368        2.36747895717634       -0.47701592474641
H           -4.59714860145636       -0.95970649169678        1.42492478702647
H           -0.51834785137857       -2.19379925818900       -1.56113464788829
H           -2.03344359401964       -3.01177402088968       -1.40370409928373
