28
 energy: -50.702108316431 gnorm: 0.000885758926 xtb: 6.6.1 (8d0f1dd)
N           -3.65232206419583        2.64323125778275       -0.07353122751560
C           -2.89146642100698        1.77951272380223       -0.07278856302180
C           -1.98251070771817        0.70660452308010       -0.06929407832482
C           -2.52562468320147       -0.56213657430962        0.26991313400452
N           -3.74889476683460       -0.60273382552612        0.83559658745657
N           -2.01111380976701       -1.74287288293520       -0.01358368776420
C           -0.77449290462616       -2.07252298438481       -0.30365318029022
N           -0.63924421609381       -3.29431033178599       -0.84948506066641
C            0.42030135727392       -1.31978121603780       -0.02280442216560
C            1.60706242049413       -2.03303592785390        0.27593379854401
N            2.80013075831528       -1.52207088219972        0.43422441695076
C            2.91094400868784       -0.20428889374570        0.27267800669352
C            4.01020570530459        0.65863057701193        0.29995159784358
C            3.49333877699276        1.92154042493242        0.05154979955500
N            2.16036207577769        1.92696901493200       -0.13823716063928
C            1.76314287711514        0.64588143264749       -0.00847833622436
C            0.48207418999063        0.09760752492551       -0.11855655872353
C           -0.62952669418105        1.00909315123254       -0.32841479307692
N           -0.29467579798784        2.24838970125737       -0.67034647929904
H           -4.28078577202103        0.23876354062270        0.97387653063935
H           -4.17669333195671       -1.49849158599827        0.98847890606454
H            0.26295969161444       -3.65895087064125       -1.09400766939906
H           -1.46532618646171       -3.84656704099269       -1.00124685535854
H            1.55021800549854       -3.10312925615937        0.43999900517553
H            5.03453163595661        0.40141754412477        0.47746652494111
H            4.03688877158025        2.84864217804699       -0.00883445261302
H           -1.00567801108761        2.96234448362470       -0.71244363288566
H            0.72680138863812        2.48314671044641       -0.58910240870097
