29
 energy: -50.411607873430 gnorm: 0.000679745147 xtb: 6.6.1 (8d0f1dd)
N           -3.09460489317677        3.34159119854610       -0.75899312489885
C           -2.40167740235262        2.45167516501361       -0.54294779602084
C           -1.49954321372106        1.40467638538480       -0.27549505460135
C           -0.13437681038506        1.69761119058344       -0.14195482143265
C            0.82921426789257        0.72363510761007        0.08148801146956
C            2.18257329685408        1.15131702855875        0.36501462869246
N            2.34523649164273        2.36276783239685        0.93236496848281
N            3.31081078095346        0.55206652680781        0.07145831569431
C            3.54652946211212       -0.71303763438081       -0.23515616513383
N            4.79155567444953       -0.94893199062501       -0.71195889915714
C            2.70108917053389       -1.81032266085146        0.02229022945947
C            1.34541095475706       -1.75206814176239        0.23636837171646
C            0.45554803857601       -0.66860683626789        0.15480712111268
C           -0.92941363826970       -0.95837499175135        0.13123144427979
C           -1.67651497283014       -2.12339687781425        0.21986624558226
C           -3.02475575326963       -1.72547670426963        0.05762832845585
N           -4.11692388958204       -2.52927843967296        0.14757015910678
N           -3.16409667854638       -0.40540790522196       -0.13964664800182
C           -1.92225195047094        0.09250256495463       -0.10280015172992
H            0.16349109079842        2.73015862086307       -0.26360532762406
H            1.55918868515176        2.90543582355658        1.23984575908011
H            3.27987921276546        2.67375439525705        1.13154217097500
H            5.38314721562950       -0.16477069361830       -0.91978508756404
H            5.06535341527289       -1.86886627419013       -1.00276488507117
H            3.16470367397409       -2.78771029805216       -0.00406532435347
H            0.86316922330980       -2.70869806045296        0.38999967621977
H           -1.34845388917223       -3.13174882447902        0.38562872403852
H           -4.98427903681553       -2.11925203706659       -0.15525442863579
H           -3.99632345788181       -3.51577634065599       -0.00380644114077
