25
 energy: -42.716070289093 gnorm: 0.000589449748 xtb: 6.6.1 (8d0f1dd)
N           -3.40377091711024       -1.98946210567450        0.56870342372989
C           -2.67988623539828       -0.94740489120712        0.10456266557156
N           -3.42779715535477        0.05019979091937       -0.40819769173559
C           -3.01566458407500        1.28724241248114       -0.51313732242522
C           -1.82939212692244        1.88578756884908       -0.10011637644924
C           -0.61031010964818        1.25964503073059        0.19372469999156
N            0.40681165161890        2.08500923099871        0.46518978253592
C            1.65281299330096        1.64701017584034        0.44677392711714
C            1.97581408285493        0.35779601897792        0.07781158120439
C            3.19802697908560       -0.35737437452895       -0.05981255222911
N            4.44585459456616        0.17609552428158        0.00685675145096
C            2.87838631613319       -1.70082405669580       -0.32477143956401
C            1.50273378290229       -1.84962184956843       -0.35120882886453
C            0.90571124606707       -0.59359391390451       -0.11284532761658
C           -0.41993391669329       -0.19242941060981        0.03986679541196
N           -1.37946123493420       -1.11327746048656        0.10263291244182
H           -4.39530113789518       -1.99209492527578        0.41067405199760
H           -2.92600682626194       -2.83941016239158        0.80888972081946
H           -3.76323901535748        1.94275432443385       -0.95349276531028
H           -1.78000731793117        2.96606381377635       -0.13859334242702
H            2.40191419044922        2.38430767037175        0.71565123408450
H            4.54904739927778        1.09893868801877        0.39240155463906
H            5.22557479418176       -0.45082782142809        0.11194227219768
H            3.60089754997529       -2.48157877811955       -0.48143141182717
H            0.96543175336894       -2.76356330198867       -0.52025084244427
