30
 energy: -56.514811256413 gnorm: 0.000860135925 xtb: 6.6.1 (8d0f1dd)
N            5.77068309022639        0.69457374828227       -0.98691920390506
C            4.65134982067639        0.65932518499761       -0.73595861127680
C            3.28203340765398        0.63946988945277       -0.43278102787323
C            2.50416775455768        1.77886621350501       -0.14756965646873
C            1.19081898621978        1.35403875971510        0.04342687799931
C            0.02173242662680        2.05845947739984        0.35811962284205
N            0.02425521850560        3.36749470282790        0.63809176078884
C           -1.20181743204588        1.32952821385314        0.31582168029341
C           -2.36426821492652        2.06627074446466        0.62279559734748
N           -3.21859234899617        2.74253899911836        0.98741187344297
C           -1.26161542779452       -0.04744067621255        0.06022462547425
C           -2.51319479992752       -0.60064633699176       -0.33919692969579
C           -3.44697432514464        0.30411657092223       -0.91263037511677
N           -4.20776283198006        0.94263459995426       -1.48616713990315
C           -2.95973131506134       -1.91466072676277       -0.35940410812164
C           -2.31137693048941       -3.05301159729421        0.09744173509118
C           -0.99266433976986       -3.15344845332841        0.49381145619330
C            0.02229504818622       -2.19539374849842        0.41862594818607
C            1.26350551122983       -2.72393472976911        0.86416932696720
N            2.19301335135598       -3.23882740914198        1.29557646043039
C           -0.02421242837114       -0.81941007073479        0.09355729854577
C            1.16088687295083       -0.08826137889158       -0.08557158163865
C            2.47282296372571       -0.49899148408951       -0.38535130607758
H            2.87857557516951        2.78524843239235       -0.11031332966595
H            0.88574766400034        3.88377674195510        0.62690287528008
H           -0.83899547749728        3.85021837409618        0.82908868954707
H           -3.96759714839877       -2.05054283396329       -0.73320617489830
H           -2.89749873694002       -3.96097747352194        0.12936167902997
H           -0.67263757041977       -4.12386274013904        0.85509222747419
H            2.80799427827723       -1.49484312950192       -0.60003130259216
