30
 energy: -49.309756346952 gnorm: 0.000504827123 xtb: 6.6.1 (8d0f1dd)
N            4.43200031262654        1.17847171923830       -0.82796246625453
C            3.26225390737707        0.74663131081469       -0.28662558362421
C            2.30958650097437        1.68097322874961        0.11499644549333
C            0.95804094949384        1.45989081989612        0.37842342143369
N            0.27146284814482        2.52289571413004        0.86217814867040
C            0.19228891931940        0.27664974255357        0.10026659890523
C            0.78739046299011       -1.05202012690999        0.09145603944714
C            2.16535508787215       -1.29211108163077        0.19635811172554
N            3.21650324838827       -0.56757708101327       -0.07804475571227
C           -0.06111762440652       -2.20101151534720        0.07016319322313
N            0.48810918132383       -3.48628662575963        0.09616554306662
C           -1.43766979082558       -2.08380409246777        0.05267086366968
C           -2.02405986707122       -0.83126229121290       -0.01594961337064
N           -3.32192337856716       -0.54336677422800       -0.12151003861527
C           -3.38206850385119        0.80256040829574       -0.23608452372311
N           -4.59921894513811        1.42933414005701       -0.33018973027081
C           -2.13145736078007        1.41943113721271       -0.16374988075103
C           -1.19778353294965        0.37423382812755       -0.01737234635669
H            5.17148249028784        0.50455682966429       -0.92318239677565
H            4.66816690701951        2.15395074485252       -0.81205146303417
H            2.64868050199291        2.70695209669302        0.20722824770033
H           -0.66337771569799        2.37035334416959        1.20459546110692
H            0.77654165783173        3.33374964175895        1.17369736121492
H            2.45075186223441       -2.29892128898067        0.48848147270768
H           -0.20725567260158       -4.20288093837619       -0.05696851047135
H            1.30688611172906       -3.63051495467551       -0.47433438666450
H           -2.06154335749360       -2.96591545177917        0.05016727167145
H           -4.60489848332688        2.32496812273528       -0.79158343467722
H           -5.35491172806119        0.81300941277419       -0.58486109745661
H           -1.96494287983480        2.46820565105768       -0.32521955697782
