28
 energy: -41.862704124567 gnorm: 0.000486684041 xtb: 6.6.1 (8d0f1dd)
N           -0.28181402929057       -3.31166131476719        0.42272896635363
C            0.21838155415206       -2.01217342558346        0.24679548656865
C            1.57783470921023       -1.80429478289002        0.22165026060081
C            2.08479605167666       -0.53662612461299       -0.05525703727774
C            3.38055005853161       -0.06471891352378       -0.21299911689914
C            3.30904044819349        1.31791692081015       -0.43997340655512
C            1.99314033958723        1.73551490454989       -0.38008773493815
C            1.17546210146932        0.59878720523961       -0.13920266781313
C           -0.19843700965589        0.42023457265570        0.01148948354732
C           -1.04295348020143        1.54370543034699        0.31255548132951
N           -0.41401503895871        2.64697171309964        0.80384015833897
C           -2.42323815297256        1.66741927100700        0.14215277904511
C           -3.33828359162836        0.76638713557282       -0.36501485747701
C           -3.13751704346605       -0.58019097926105       -0.61868293570925
C           -2.00221402998864       -1.32344129513987       -0.35357655380212
C           -0.70461210541327       -0.94461073691314       -0.00009763255216
H            0.44361823259249       -3.97347647145818        0.65994576995709
H           -1.06610238184739       -3.37929846687321        1.05580421652317
H            2.25398668261219       -2.63355826207486        0.38552929060572
H            4.27766452829224       -0.65598290049560       -0.18876053084448
H            4.15343363930709        1.95660385995560       -0.63546925911257
H            1.65766966270003        2.73294260280543       -0.60088022021527
H           -0.97349465857498        3.38390587003883        1.19786190073046
H            0.53557522404971        2.54380819351757        1.12651338729229
H           -2.81638313679765        2.64881354450112        0.38665160961632
H           -4.33692307476673        1.14840653853764       -0.53685661748168
H           -3.98688577311019       -1.12946894895689       -1.00418703313632
H           -2.11512138970256       -2.38826448838976       -0.51730436719780
