30
 energy: -50.135626675896 gnorm: 0.000720298736 xtb: 6.6.1 (8d0f1dd)
N           -3.42983564821977       -2.77980333213135        0.40038477345766
C           -2.75334469206915       -1.85926823246858        0.25387709523649
C           -1.94919105490317       -0.71557632679524        0.08537171330172
C           -2.62142190005280        0.51396902367892        0.22447840928211
N           -3.93112583195737        0.47981574713885        0.57814552478323
C           -2.08260801499251        1.76829009694738       -0.07597654795832
C           -0.76918985440731        2.15343140842617       -0.24978741893166
N           -0.57374040354748        3.45417871263279       -0.60963610179083
C            0.42014920744682        1.37485753571482        0.00096065411946
C            1.58229986049528        2.10791790743565        0.33256049224029
C            2.82772874098859        1.54375907218733        0.46686280462046
C            2.97505292193143        0.18910839105000        0.20545136171791
C            4.04820375930774       -0.71434330763625        0.17758227125869
C            3.49469455841401       -1.93894623809980       -0.14521004213458
N            2.16117380379959       -1.87731625700645       -0.32160532743648
C            1.80261533255137       -0.59302405258555       -0.11293463875652
C            0.50465414151885       -0.03873558564830       -0.14472107673841
C           -0.59595863621693       -0.96845149105037       -0.26288872924426
N           -0.27805992477857       -2.20909620066318       -0.62006047285650
H           -4.46922647882252        1.32601975287818        0.60617298829641
H           -4.40299862531981       -0.39948942123521        0.70041490741615
H           -2.81489968465453        2.56417965636678       -0.16529786545882
H            0.32003289758384        3.73489814590085       -0.96994161514829
H           -1.37166813432574        4.00516482604785       -0.87389965055121
H            1.47868306974941        3.16026571901312        0.55383228785329
H            3.67476682662007        2.15021775255111        0.75547476426298
H            5.08293677901403       -0.49971560472274        0.36186767988321
H            4.00228987759817       -2.87996428660254       -0.26946851051429
H           -0.98249466269029       -2.92974122132786       -0.58158857827062
H            0.76141819773896       -2.42803469729663       -0.61665958043882
