28
 energy: -50.694381375212 gnorm: 0.000963659121 xtb: 6.6.1 (8d0f1dd)
N           -1.50303348607046        3.83454328523291       -0.02313167983584
C           -0.92240988597875        2.83991530854938       -0.01369738847740
C           -0.15226037600293        1.66597433993465       -0.00225128775400
C            1.25367561837033        1.83713980782475        0.00034638173974
N            1.79771397707927        3.07025225289053       -0.01317752893790
C            2.03299744755733        0.67575491303165        0.01352720455407
C            3.40322867106538        0.38646862284802        0.02228906289603
N            3.65387974451257       -0.92930478251541        0.03600683158565
C            2.46380058911569       -1.55023768767905        0.03624004781964
N            2.28772289694953       -2.86989204066592        0.04716885919515
C            1.38288039683374       -0.60429377543219        0.02251383507041
C            0.01721317476760       -0.80356017629140        0.01957089445338
N           -0.39357736425698       -2.09326966963887        0.03127234617425
C           -1.61305238622105       -2.55534884405795        0.03110773805996
N           -2.81589738053479       -2.02104196325339        0.01772255999650
C           -3.07761434993470       -0.70998094264829        0.00373555175726
N           -4.40165162573814       -0.44307494205282       -0.00663974194103
C           -2.20024116194640        0.38707246112997        0.00089354658464
C           -0.80572120907586        0.40475949474301        0.00624454475322
H            2.79519367901818        3.18024586114874       -0.00017660028524
H            1.20857478760190        3.88555485983725       -0.01296144822871
H            4.22746015427753        1.07809851850906        0.01974980636013
H            1.32214492812365       -3.17820080905886        0.04853724455803
H            3.07409432554634       -3.49408452472113        0.06061025141789
H           -1.65018178802285       -3.64616755094555        0.04236854758822
H           -5.03755760651977       -1.22079536644531       -0.00843734789216
H           -4.75184011156619        0.49719037448812       -0.02428358946344
H           -2.68567755885010        1.35647232413821       -0.00897562974847
