31
 energy: -53.852734584524 gnorm: 0.000929978734 xtb: 6.6.1 (8d0f1dd)
N           -3.18474889726799       -2.84050899772007        0.00334495371260
C           -2.93340119806217       -1.71466492398755       -0.05504082868616
C           -2.63585122178108       -0.36263868521456       -0.10806118737435
C           -3.56780196776571        0.66124684321917       -0.36887777119851
N           -3.02549478032383        1.86994656505694       -0.42503602103779
C           -1.70443915233690        1.68969794359564       -0.22374470900910
C           -0.69170876733909        2.63290306210694       -0.26546491719132
C            0.62363296105026        2.24929888062242       -0.08660786559419
N            1.62991797575478        3.25156999779560       -0.17588424494145
C            0.97525635294064        0.89784298657340        0.17220312418691
C            2.37002905288856        0.56532185294408        0.43519813692578
N            3.10569005767493        1.48309348051580        1.09863450588162
C            3.00871931141869       -0.57279606968440       -0.02121823218300
C            2.37187439114492       -1.74282805217238       -0.47997372700753
N            3.04866448738225       -2.61773676961676       -1.25421935797593
N            1.20554698323982       -2.15962248161691       -0.03162249489331
C            0.24614014336920       -1.46820133313788        0.52792078969038
N           -0.54644196425360       -2.12015749029201        1.38530161815115
C           -0.05414221709421       -0.08077663952787        0.21762479112276
C           -1.38152222026480        0.30263877162080        0.00540905989799
H           -4.62523930426451        0.52594396535369       -0.51704688600693
H           -0.93380125190024        3.66629096436675       -0.46789942387567
H            2.34642684279073        3.02027863992166       -0.85532734533807
H            1.21198593752736        4.14145196550965       -0.42091476388958
H            4.09989546274799        1.35606930159025        1.17763631538365
H            2.71528717511566        2.40471749255909        1.23291283631854
H            4.09132830251349       -0.57871632082789        0.00138053106436
H            3.94462624659692       -2.38229862802639       -1.63882726391825
H            2.58225819526054       -3.45634306476644       -1.55028288040056
H           -0.46656665686816       -3.12280124303765        1.44400503484366
H           -1.42188983879461       -1.70861147212340        1.66580379554251
