32
 energy: -54.366694117419 gnorm: 0.000749955638 xtb: 6.6.1 (8d0f1dd)
N           -5.83525919783093       -1.58827305438495        0.35673921988636
C           -4.89441200410658       -0.93969831594450        0.21893003850595
C           -3.72060524702782       -0.20030978888046        0.07538938791406
C           -3.60486391909521        1.17607208782177       -0.13799461537482
C           -2.24133657255879        1.49438842655447       -0.16153691449015
C           -1.57874572787941        2.70881769323042       -0.28531310075419
C           -0.20737320664472        2.73233793059879       -0.20785113908712
C            0.58429057837933        1.57178654012713       -0.07216594870483
C            1.95848637169229        1.77539167677613        0.07898044292119
C            3.04307508856100        0.91175307933659        0.21120668088611
N            4.24268771345377        1.48577172537810        0.50643079895160
C            3.03983495876985       -0.49414427124959        0.03988369417346
C            4.28815175722878       -1.13346152458213        0.10078994850536
N            5.31612096552939       -1.65340611523014        0.13830297891294
C            1.92520262362361       -1.31873957165829       -0.24329068626375
N            2.18453017360419       -2.64043870372012       -0.45651295431957
C            0.58240521959878       -0.94906280595220       -0.25319980295071
C           -0.07256958344125        0.27298895908280       -0.07829701574996
C           -1.47899091749665        0.27915591221211       -0.00413605713074
C           -2.41874433132583       -0.76483853559205        0.18017590432046
N           -2.19080061742647       -2.09326366480795        0.43454719342783
H           -4.42289042625027        1.86353404478583       -0.24672865789409
H           -2.13611357586736        3.62621468584913       -0.40793606215758
H            0.30330659420482        3.68369895426051       -0.25409496463649
H            2.23995790800129        2.82218003827391        0.13916385037063
H            4.32931450548787        2.48566576128393        0.51166256116545
H            5.08304467504133        0.93435185037458        0.49523936546871
H            1.45020731053589       -3.24115542631913       -0.78509216225561
H            3.13401583516494       -2.95565233993282       -0.55589112697586
H           -0.08005022310908       -1.77460022263103       -0.47921964189565
H           -1.37336264316653       -2.31206087714674        0.98521775901991
H           -3.01790412945014       -2.61114796051443        0.69995450261091
