28
 energy: -46.679767876979 gnorm: 0.000886690360 xtb: 6.6.1 (8d0f1dd)
N           -0.22128193698050       -4.09481059097218        0.36754952813692
C            0.16840163984003       -3.01867572296454        0.26955022464527
C            0.67925942024619       -1.71023835751492        0.16313176197772
C            2.05920950767338       -1.51061055383057        0.16312511760515
C            2.55231989348349       -0.23304317392418        0.01764559465549
C            3.87284395507946        0.26770418518154       -0.04716556999567
C            3.79860890689375        1.64007412726168       -0.19518377238579
C            2.45489565787718        2.03384766799643       -0.21708027010851
C            1.65206537083142        0.89337320341433       -0.08542477858594
C            0.24941836760569        0.73198356843924       -0.02573056925156
C           -0.56080011525227        1.85283151264529        0.06536876531201
C           -1.96013070896268        1.98972523310437        0.14936557250788
N           -2.42682512588958        3.25310059502573        0.37269866786411
C           -2.89957737289382        0.97314922340951        0.02972525689822
C           -2.64349564061918       -0.39394173223874       -0.16208383778055
N           -3.69457004282519       -1.20724651910996       -0.44652187428428
N           -1.50309217648455       -1.05358080184390       -0.08187240947943
C           -0.25219872533220       -0.64957282299247        0.02221937352202
H            2.72013988584161       -2.36186757163497        0.25372363774883
H            4.76697008424175       -0.32503391605743        0.01007406289311
H            4.63652391703202        2.30883590277511       -0.28156217618553
H            2.12156682310191        3.04941842518992       -0.33615757075119
H           -0.02496559312182        2.79315014938335        0.11551775736502
H           -3.40907261695152        3.44047077056091        0.28086368741304
H           -1.79869704891448        4.03274191709766        0.29397363418521
H           -3.94203370270100        1.26437624000488        0.06958256334364
H           -4.64043084522993       -0.89118990139263       -0.33420347559817
H           -3.50684399518899       -2.19564394801353       -0.44361579186704
