25
 energy: -43.502649512845 gnorm: 0.000913486132 xtb: 6.6.1 (8d0f1dd)
N           -4.64027648510897       -1.39806062532397       -0.01037694261916
C           -3.62423137185811       -0.85757716058670       -0.03151642146908
C           -2.44025774211878       -0.12645680257626       -0.04831513238364
C           -2.38050620720278        1.29905648350105       -0.04453289007116
N           -3.46732992638489        2.10377774152108       -0.10304789537152
C           -1.04098632508375        1.70511582309184       -0.01724227648182
C           -0.23332110892704        0.56337909452506        0.00270766182804
C           -1.11869100942933       -0.60324737959776       -0.04090865369042
N           -0.67669781248205       -1.84726412218579       -0.04061725959912
C            0.62191924109515       -2.03301592096096        0.02830975430352
C            1.60682969658803       -1.02277858065433        0.05598116813367
C            2.94709802554861       -1.43310095671772        0.12239099246477
C            4.10762196002828       -0.70028539810096       -0.05459993624792
C            4.17534654534428        0.67732231185895       -0.25906856020732
N            3.27766436079478        1.57596259272372        0.06743952837708
C            2.01436150456868        1.44604120625876        0.33947431206059
C            1.14404407870190        0.36239310258149        0.07370288967075
H           -4.37705701062647        1.69230902946186        0.01580554716171
H           -3.36393077836047        3.08857059148282        0.06462056008659
H           -0.70895291221374        2.72654837006997       -0.04234177614101
H            0.93712232926393       -3.06878753753230        0.02538447308476
H            3.08134393322155       -2.50416518225631        0.22760345847884
H            5.03885121274628       -1.24915900372300       -0.09703909885833
H            5.10110651063207        1.09991205897737       -0.63674975865382
H            1.55718791816161        2.34266367606179        0.74705430484412
