29
 energy: -55.225135634890 gnorm: 0.000791686494 xtb: 6.6.1 (8d0f1dd)
N            5.56313412224601       -0.94618249394112       -0.02696770694165
C            4.45747901140810       -0.62750185745917       -0.02615275806481
C            3.12150254037312       -0.22974962421380       -0.02250627364989
C            2.67046202689792        1.11124990557605       -0.02739326036343
N            3.45541766698167        2.19637802309382       -0.03584395026491
C            1.24004343688393        1.10413715945656       -0.02197333342777
C            0.29209478325936        2.10050262191031       -0.02339373852695
C           -1.05645956030422        1.73264733198469       -0.01655305656616
C           -2.03483470825980        2.74809541294272       -0.01884141365380
N           -2.79685511785260        3.60689487997388       -0.01886614516268
C           -1.50385447225145        0.38699235780517       -0.00814209401660
N           -2.82826711383288        0.23787232299159       -0.00279938221478
C           -3.51123495483538       -0.89703564990895        0.00528741830550
N           -4.84144501626137       -0.72475077800672        0.00854081254414
N           -3.13729817106762       -2.18951890795242        0.01105012680432
C           -1.89278125092331       -2.60698267686843        0.00889917051671
N           -0.72419490376787       -2.01800749254919        0.00135047064960
C           -0.50296668810118       -0.67312099905569       -0.00648476471697
C            0.82030412371759       -0.26640086790619       -0.01352182929063
C            1.99528858510968       -1.08846225400992       -0.01381016022720
N            1.93424429151110       -2.41144261905802       -0.00698155251100
H            4.45590812156749        2.09540736836703       -0.03905074982565
H            3.05354566660640        3.11653030473831       -0.03885441724363
H            0.54985375620200        3.15035676900828       -0.02970840615381
H           -5.20865654451076        0.21067510569755        0.00489178672455
H           -5.44127000025383       -1.53013118383601        0.01485848202683
H           -1.81667904895955       -3.69550727607469        0.01459831748267
H            0.97708220359635       -2.77768887292263       -0.00139409753050
H            2.75950302272115       -2.98675188708297       -0.00714342880138
