26
 energy: -42.427507858458 gnorm: 0.000667510579 xtb: 6.6.1 (8d0f1dd)
N           -4.29751539447078       -1.13674131814967        0.33379291841079
C           -3.08092167858116       -0.50083473128680        0.25550045529799
C           -2.92129477687513        0.89507363649096        0.05748390999378
C           -1.56886916816689        1.15734378643827       -0.01419283323320
N           -0.94039800114806        2.32228718921470       -0.19719634346799
C            0.35705074060008        2.30538309422101       -0.26785918926775
C            1.19081078197230        1.15152041587441       -0.14500492932582
C            2.56666637112377        1.37194836714186       -0.09760915672603
C            3.58259927325054        0.50863101206139        0.29771710132250
C            3.44029549331761       -0.84416216788949        0.55600807357640
N            2.47090487989082       -1.64267048088534        0.16262514549182
C            1.27067650597203       -1.35296953561698       -0.27008973970085
N            0.63890616080897       -2.33339301412312       -0.93755240888266
C            0.52351296771540       -0.12706389061392       -0.03955392772370
C           -0.85282754199380       -0.12494277144642        0.08512057841611
C           -1.83730224395341       -1.12120881092995        0.25517211511595
H           -5.07796020488987       -0.55550727338062        0.59438666361398
H           -4.29494303544600       -2.04961497797070        0.76057973765859
H           -3.71616192256238        1.61131059119902       -0.02237041779736
H            0.83443879894485        3.27179133830355       -0.37668419622359
H            2.86794715466714        2.39962381267217       -0.26995965047101
H            4.56167780842672        0.93959628502049        0.45871535193703
H            4.25808119805094       -1.36909779364774        1.03836552983037
H           -0.29573174847455       -2.18719951859315       -1.27790611368048
H            1.13445179837322       -3.18368672334465       -1.14124514952214
H           -1.67004063925225       -2.16599149835956        0.45036263305744
