28
 energy: -50.704835525654 gnorm: 0.000329829542 xtb: 6.6.1 (8d0f1dd)
N            5.51783032024742        0.74348639145992       -0.44991684648994
C            4.46520092220694        0.30366862111791       -0.30592664154737
C            3.20410971316567       -0.26100703940393       -0.12542325655793
C            2.92201936046681       -1.61654035653296        0.09967293692188
N            1.61958206334335       -1.86722942993125        0.24322537945820
C            0.98590895311002       -0.67581194751659        0.11417237823616
C            1.94543134124005        0.37933984076590       -0.12239582333164
N            1.59431465390002        1.65136359716462       -0.28720103136662
C            0.32099954250734        1.92330817304688       -0.16976299352666
C           -0.71179219930305        0.98945486962408        0.08661346396869
C           -2.04733413645192        1.49711536736172        0.31168267812795
N           -2.16636036723953        2.71737683779699        0.86517464943049
N           -3.17916813642874        0.94215334203921       -0.03501367457641
C           -3.42969393366139       -0.32402232099443       -0.34397044921374
N           -4.64245523357029       -0.51634228888115       -0.91199191251013
C           -2.66571522783181       -1.44670946394095       -0.00336493419643
C           -1.31808919239090       -1.49269430281354        0.32894154047844
N           -0.77330317165746       -2.65649744709294        0.69059631137993
C           -0.38053817661232       -0.38544354882467        0.18282758953893
H            3.63791222544545       -2.41677884271419        0.16771260590082
H            0.06697372940957        2.96361764355113       -0.33464073703361
H           -3.08798595421369        3.09966620147831        0.98697370384364
H           -1.36031524133776        3.24313616324822        1.15017547611146
H           -5.18475190207810        0.28972471796184       -1.16537412839882
H           -4.93376903093723       -1.42648387198587       -1.21637319852920
H           -3.17771611658595       -2.40073907297913       -0.05120929565869
H           -1.33601301342526       -3.49084100940774        0.67919791808387
H            0.26518106358282       -2.70801915579719        0.65825286665674
