30
 energy: -50.118357054617 gnorm: 0.000719563677 xtb: 6.6.1 (8d0f1dd)
N           -5.09394921206026       -1.09426537736877       -0.03213526576824
C           -4.07881511968855       -0.54720740992778       -0.03019557833162
C           -2.87216800763656        0.13779820161352       -0.01380774075373
C           -2.72171693636907        1.54640910794984        0.02483446127711
N           -3.75040797602980        2.43953394418407       -0.02271851869407
C           -1.35557190422675        1.86124295083921        0.04705562807446
C           -0.62016745139962        0.67393886795474        0.02893142961507
C           -1.57514698802261       -0.42050493622599       -0.01701532436955
C           -1.14183736442022       -1.72403826907299       -0.08771471103227
C            0.22231529845193       -2.01706885995806       -0.07047663794442
N            0.59989690689694       -3.35860491651226       -0.10767965607796
C            1.19301023053694       -0.99555823145742        0.04366490082558
C            2.52738596226297       -1.38496356039213        0.27220478885224
C            3.69544098109917       -0.66947512650815        0.27309921799655
C            3.85742425739118        0.70830323359459       -0.01203576515947
N            5.11137047741607        1.16770125127638       -0.22650538182959
N            2.93174250900755        1.65479972773059       -0.03829250321422
C            1.62910577567210        1.50306341332959        0.06733961550494
C            0.76448412430655        0.40468162335037        0.03455537895450
H           -3.56375810264163        3.38822944443541        0.25409007522965
H           -4.67498420191409        2.08885432081827        0.16658035885247
H           -0.97603808355722        2.86603449544385        0.07085535364592
H           -1.85913233934338       -2.53143584155007       -0.15603554603247
H            1.41119756108611       -3.57992521423587       -0.66359516214264
H           -0.17181455527614       -3.98168117496206       -0.29566611361147
H            2.65303004863680       -2.43961153349553        0.48519152765899
H            4.60990033639830       -1.21808831047442        0.46183527337878
H            5.90980169828033        0.56207909589414       -0.18897473661208
H            5.23074460154816        2.14970970711879       -0.40074102749489
H            1.13426822839453        2.46691743310818        0.13868713600215
