30
 energy: -54.923203172703 gnorm: 0.000575296011 xtb: 6.6.1 (8d0f1dd)
N            1.80018649043583       -4.27045049472008       -0.39121354478380
C            1.75479534743713       -3.12460419823191       -0.31239529813997
C            1.75520601619180       -1.71656016587498       -0.21047550446099
C            2.99898880990736       -1.14897596221776       -0.45096602435366
N            3.44138915888390        0.07399403152937       -0.27822754030651
C            2.73727495186994        1.13734713740799        0.08276776007948
N            3.51833892619870        2.17994667410599        0.43187666270627
C            1.31882248532328        1.32536329504634        0.07195638329210
C            0.95565903653303        2.65886000989676        0.33763566225953
N            0.79598872832408        3.76555415051266        0.61469647836617
C            0.29092612118686        0.36534929872005       -0.06975623915740
C            0.49086035586457       -1.07679527472902        0.02210830085933
C           -0.59252000617888       -1.90238626222362        0.27407828521795
C           -1.92630294108819       -1.46395522244803        0.31086176861194
N           -2.92874806516081       -2.33963510153712        0.58335070558013
C           -2.15203238810716       -0.13460886988457       -0.03085829129879
C           -3.31009614847621        0.64245442021207       -0.27547629113682
N           -4.61348711852569        0.25391964970082       -0.23232676062284
N           -2.98439355238670        1.91764071025115       -0.57162261356338
C           -1.66233087009066        2.00760883873240       -0.52553872659036
C           -1.04740193733264        0.77274334733991       -0.20165000604573
H            3.78050982423995       -1.83206036732420       -0.77514927027471
H            3.13349490557409        3.07992339291879        0.66076797986768
H            4.51328966528849        2.05063532389894        0.37217238129517
H           -0.40952768029211       -2.95663234236739        0.42785300091763
H           -2.67002364093020       -3.24655889865450        0.93687424500050
H           -3.81230471847619       -1.97198972981356        0.89322755677750
H           -5.25362684356975        0.95788261069855       -0.56912993171462
H           -4.82990219298693       -0.69131674966750       -0.50693464883195
H           -1.19335360646358        2.93908619971629       -0.77586732464828
