30
 energy: -54.152438205592 gnorm: 0.000582669782 xtb: 6.6.1 (8d0f1dd)
N           -5.34732075959014        1.58572778701013        0.38813058617069
C           -4.35192074158616        1.01434741008488        0.29651126577595
C           -3.12854283634066        0.35656304129960        0.18741877965175
C           -2.92296300805214       -1.02567732765971        0.04797296748193
C           -1.54804104684332       -1.27316778452988       -0.02589109065784
C           -0.79012444932689       -2.44371785829202       -0.19905266921847
N           -1.37712566814060       -3.65536117058826       -0.36118807067573
C            0.60121036832799       -2.32128407543740       -0.21387040459941
C            1.28530355818877       -1.11765489076462       -0.07192770909697
N            2.61170214875620       -1.22282804586109        0.06504426171219
C            3.48409944823250       -0.24147135021013        0.20227785749952
N            4.72184299061141       -0.65125030116313        0.56210038098012
N            3.39966216828059        1.07467386269850       -0.01146265466757
C            2.26978094088582        1.73841731879071       -0.18407120540876
N            2.44275930551748        3.06120166635101       -0.43751970351022
N            0.99189412678638        1.38282781309665       -0.06655506223894
C            0.51262609179665        0.13756033111746       -0.00154510342578
C           -0.86931813265567       -0.01404526359372        0.06669784100525
C           -1.86261321111236        0.99865020146423        0.19226285021679
N           -1.58141188510437        2.30149502634552        0.29412952000650
H           -3.71531520806000       -1.75168739672205       -0.00170345874555
H           -2.36121718406565       -3.75281581281400       -0.18899283298460
H           -0.80778375833127       -4.48263012069599       -0.34376964100438
H            1.20596153749658       -3.21270682236085       -0.29570500378229
H            4.90454317769702       -1.63618667702689        0.61645169718199
H            5.46987942542442        0.01711618290198        0.57049741876938
H            3.37317171741420        3.37983325013777       -0.63875863219293
H            1.65477035216095        3.60891869707664       -0.73161911726151
H           -2.30463606810907        2.99176563810915        0.39290063475662
H           -0.59306616385879        2.52560282313716        0.25480783936289
