30
 energy: -54.938061640882 gnorm: 0.000558189805 xtb: 6.6.1 (8d0f1dd)
N           -5.72368895514802        2.28169021747428        0.79296436306613
C           -4.78081311561276        1.64866281206988        0.61580772800529
C           -3.63369335400861        0.87906194767213        0.39528197261050
C           -3.62222705834795       -0.49603279570433        0.09303325690492
C           -2.28947519751143       -0.88435897385793       -0.03648511331376
C           -1.65780108462729       -2.09356404429742       -0.39006163121548
N           -2.34643873869970       -3.18036220934609       -0.77203366299540
N           -0.33283835722415       -2.22882244914238       -0.33806903926660
C            0.45560831888221       -1.20993864567353       -0.03392453312866
N            1.69313123901062       -1.55722993358696        0.25363262529600
C            2.80075408832782       -0.87526533740860        0.38925878104136
N            3.81151250767134       -1.55490757285634        0.97464389586083
C            3.07568284874554        0.44654687933932       -0.08138058942674
C            4.42648501066998        0.79221034072737       -0.23428362837475
N            5.53829926190674        1.06550653142551       -0.35966630718938
C            2.10831500094878        1.44052744497810       -0.31921251777108
N            2.54559776935937        2.66337715699342       -0.70529982282251
C            0.72112324213036        1.30300559100915       -0.11859373449768
C           -0.05918907002719        0.17702638585676        0.04934936762508
C           -1.46248510998629        0.27360039704805        0.17519432023397
C           -2.31487144687943        1.35448358394202        0.43281857680498
H           -4.49683328782067       -1.11246590596373       -0.01066661626094
H           -1.83569482165625       -4.02288906443412       -0.97133929697096
H           -3.34978031090963       -3.18585947059945       -0.75568432217374
H            4.74603021212663       -1.18434964253349        0.98666952517677
H            3.65446827873276       -2.52457994497266        1.18799916147059
H            1.89439795544503        3.41113609941775       -0.85830877632148
H            3.52739203065167        2.83631889957602       -0.83445054516692
H            0.17128482384230        2.23548351021698       -0.18139323399179
H           -2.03249276969165        2.36705392843034        0.65528562729148
