28
 energy: -46.695794627401 gnorm: 0.000638087760 xtb: 6.6.1 (8d0f1dd)
N            5.16921423543363        1.05651134125918        0.03113795644946
C            4.10006134532183        0.62602824664685        0.01233691719100
C            2.83259260633765        0.06530029899751        0.00361401468370
C            2.54193019471059       -1.33684692854067        0.01610242167844
N            3.46642638532159       -2.32556012071267       -0.03374412082696
N            1.23471487472360       -1.59231507654170        0.02524676062180
C            0.61479839423241       -0.38722449537044        0.01305302457847
C            1.57583845249975        0.69096771381334        0.00164412860625
C            1.13065400451377        2.01068043032435       -0.00585969958499
C           -0.22056562748389        2.25447531614840       -0.00355521591277
C           -1.19845616466981        1.23328720429111        0.00432237324055
C           -2.53491919885040        1.64570848023660        0.00290121878821
C           -3.72395440656096        0.94587816113952        0.00138263285443
C           -3.94740772593629       -0.43490404075537        0.00271411140544
N           -5.23505454738470       -0.85902979517114        0.00582783111343
C           -2.94936136724563       -1.43499042706880        0.01366992432511
C           -1.59192567845420       -1.29118187764474        0.01912137404116
C           -0.76269162827669       -0.15176311438133        0.01289935940329
H            3.14977743546727       -3.26004482064407        0.15619600694410
H            4.42279253397943       -2.09614890294174        0.17430139619577
H            1.83968469270178        2.82641613684076       -0.01316354935283
H           -0.56486033631206        3.27932008328417       -0.00935588188238
H           -2.66066799799095        2.72346057524610       -0.00076142023706
H           -4.62308364562787        1.55187980197937       -0.00350526439670
H           -5.44919606113525       -1.83890604422070       -0.03878422476458
H           -5.99175002082671       -0.20094710743417       -0.04479819033441
H           -3.32563636190837       -2.45149354008755        0.01708485945973
H           -1.01264984417950       -2.20755924229215        0.02634972161228
