25
 energy: -43.507287432754 gnorm: 0.000697760154 xtb: 6.6.1 (8d0f1dd)
N            4.20364973004229       -1.87293942725948        0.06842084557708
C            3.36565173501135       -1.08938790968667        0.01534643006281
C            2.32576938939616       -0.13629089149353       -0.03536395905520
C            2.65633622219578        1.13014999214191       -0.52852001671046
N            2.02083022298787        2.24859733494210       -0.30570657994670
C            0.80535421961824        2.43323877925266        0.13462289819940
C           -0.30239273659828        1.56718574336792        0.11231488131726
C           -1.57744124340985        2.17438106243343        0.18065331150839
C           -2.74702750557804        1.46471824630896        0.09173787220439
C           -2.67986266897814        0.08394630567646       -0.07743227747319
N           -3.67818750576828       -0.78089595685024       -0.22799475546339
C           -3.10216314643312       -1.99067502524595       -0.36467011423309
C           -1.72308391264908       -1.95998949705424       -0.25200759499091
C           -1.38315017351115       -0.59874570637390       -0.06774242790034
C           -0.19770610099189        0.12329729798080        0.07545542491905
C            1.03298311678471       -0.57176502689681        0.35244769623332
N            0.93843264539526       -1.77767333421087        0.92797535303862
H            3.60626624679033        1.24323249326260       -1.04008686222278
H            0.61290240140303        3.46276603106451        0.42505058930064
H           -1.61057825399575        3.24980594036386        0.27475116152438
H           -3.70728919205084        1.95422954059801        0.13340000459903
H           -3.71683864524746       -2.85705043677084       -0.53440029147004
H           -1.07334964569047       -2.80427320667079       -0.39204105391778
H            0.03357757464414       -2.12864266922241        1.19884298587654
H            1.76395932143242       -2.32786870364849        1.10219560022428
