29
 energy: -50.411258460797 gnorm: 0.000523555364 xtb: 6.6.1 (8d0f1dd)
N           -0.79522425662303       -3.99109615229871        0.01991642586265
C           -0.81074977081683       -2.83905956635702        0.01414182762788
C           -0.91582109131640       -1.43995354268084        0.00614804306089
C           -2.22508807185094       -0.91045047093796        0.00531060819259
N           -3.29939221747861       -1.72159481752333        0.01287163933245
C           -2.35465446874403        0.48408619806694       -0.00704670161616
C           -3.44571209824362        1.35955728602177       -0.01748045470328
N           -3.04505071923825        2.63632810413223       -0.02846576986591
C           -1.71161091515430        2.63196597940189       -0.02453839466986
C           -1.19009749926448        1.32588082253741       -0.01162003258524
C            0.12570650246281        0.81495538162105       -0.00458183331030
C            1.18402235193102        1.70884056475629       -0.00073911377900
C            2.57753913018878        1.50829829790278        0.00188913012445
N            3.35221841116234        2.62187659023415       -0.01766748540238
N            3.28533424543094        0.38911545301569        0.00065443730401
C            2.80269820247175       -0.84629583318317       -0.00167838706388
N            3.77628081334369       -1.79009924009895        0.01748796072625
C            1.47649030697136       -1.31253035524610       -0.00144468270924
C            0.25973692611164       -0.64031213769151        0.00034573957405
H           -4.22188457436342       -1.32730102655797        0.02086247909245
H           -3.18514410653316       -2.72068801306564        0.02971794550502
H           -4.49527888613577        1.12351384045180       -0.01891998778069
H           -1.18099705500921        3.56708150809436       -0.03267663834769
H            0.89230932071863        2.75140034001998       -0.00239889359720
H            4.34725676093154        2.50463153481319        0.04587265926354
H            2.95245070186727        3.53721430987119        0.07301474718319
H            3.55864402894969       -2.76636547288697       -0.05765086374207
H            4.73095178769563       -1.48481220800092       -0.03829354651699
H            1.39956801473499       -2.39460933141159        0.00015055814047
