27
 energy: -47.756466697478 gnorm: 0.000819573971 xtb: 6.6.1 (8d0f1dd)
N           -3.20348267104607        3.43625294827828       -0.33276202833685
C           -2.42492364487979        2.59987815194778       -0.23412680144588
C           -1.45012955524571        1.58711262724701       -0.09989112590802
C           -0.10853744560335        1.94302533525560       -0.00629541630737
C            0.92415315202496        0.99814561413267        0.07706360012421
C            2.27137109940919        1.49232610215470        0.22794535429093
N            2.43640312776944        2.73575722845849        0.72464828929219
C            3.42408077163581        0.85891098256792       -0.26084161812206
C            3.53241132137395       -0.46544291069508       -0.63428359812421
N            2.76964805788736       -1.44802943281687       -0.20451961792672
C            1.56396194166950       -1.42524218127347        0.25040539292844
C            0.58208459824965       -0.40062029770486        0.09000869779536
C           -0.76958437414359       -0.75821346412983        0.05177580742788
C           -1.42633388216258       -2.01227116483379        0.05567714000253
C           -0.85940272652647       -3.28429775199125        0.10395102636808
N           -0.41990068251831       -4.34796972551640        0.14658948800434
C           -2.81580987307401       -1.77320143829112       -0.02608740937916
C           -3.05489203164390       -0.41181605583060       -0.08713094658330
C           -1.81699764906271        0.24238444429027       -0.05154670799739
H            0.12775159889848        2.99520306177138       -0.07516468341039
H            3.35810403035912        3.13145376972200        0.78546648440271
H            1.66789493916234        3.24971135346813        1.11635096685994
H            4.30564025703231        1.48123895306817       -0.35627346588371
H            4.40403522676599       -0.78967599749686       -1.19077336934303
H            1.23609606602988       -2.35454598541972        0.70417072898917
H           -3.56137441162236       -2.54781050282529       -0.03710439782012
H           -4.01388499223981        0.06681414236373       -0.15370903129792
