28
 energy: -51.476986066206 gnorm: 0.000683717403 xtb: 6.6.1 (8d0f1dd)
N            5.41551633626633       -1.10708592529401       -0.00074688529096
C            4.28597442963602       -0.89385025648926       -0.00147126196097
C            2.90665868929627       -0.60818022827519       -0.00014715819619
C            2.04758168714813       -1.71415051337676        0.00487218567286
N            0.75108937832786       -1.81605497724116        0.00430884712715
C           -0.19080137155167       -0.87412598655127        0.00118398762079
C           -0.01816314669984        0.58636684854447        0.00057864299290
C            1.21481133717140        1.24005925466403       -0.00189700064335
C            2.52785458251304        0.76203322802487       -0.00348751022349
N            3.51760331859115        1.68143547722836       -0.00789711550553
C           -1.17700370459899        1.40494501728346        0.00114634983434
C           -1.04326306025229        2.80447731800581        0.00276825217637
N           -0.99352117419032        3.95449337249857        0.00165693939963
C           -2.50154888385790        0.90662720738125        0.00042430525426
N           -3.55343905232943        1.74122432433984        0.00094390282524
C           -2.65964188789470       -0.48723471438851       -0.00099791629083
C           -3.75420733368818       -1.35239689968876       -0.00184793061312
N           -3.36306830508670       -2.64158609659148       -0.00211012070180
C           -2.04019262192613       -2.65683150227641       -0.00127114396650
C           -1.50414097095122       -1.34330312465868       -0.00057963025434
H            2.54365799742431       -2.68318355810601        0.00918023354184
H            1.15055712820113        2.32394178574566       -0.00380605467758
H            4.48121408835703        1.39260546643442       -0.00834017806099
H            3.30205576811653        2.66256768108732       -0.00917740789270
H           -3.41626815420720        2.73834956896813        0.00193763847616
H           -4.48632360991352        1.37032300100345        0.00019284154035
H           -4.80239972974888       -1.11177910669534       -0.00221159435301
H           -1.48974002245228       -3.57762567827675       -0.00119506723055
