34
 energy: -63.403667543059 gnorm: 0.000865360074 xtb: 6.6.1 (8d0f1dd)
N           -5.66214731094642        0.14049837936027        0.75865403539480
C           -4.54101233639661        0.28717091823922        0.54675299138169
C           -3.18258112187974        0.46874094967339        0.28953762114360
C           -2.57706438394292        1.68125188203549       -0.09516446928248
N           -3.20716290834579        2.84742781595430       -0.29918765091027
C           -1.17536907153173        1.44566852941948       -0.19638351688232
C           -0.13891129498058        2.28051153988003       -0.52918167703118
C            1.16917994502596        1.79684886878499       -0.42657269239270
C            2.19093656514827        2.68261274062146       -0.82720591170270
N            2.92597955081305        3.44591358456621       -1.27009376608888
C            1.45311931080354        0.46460660322876       -0.03564346909229
C            2.75592053364987        0.15467764636051        0.43127062488681
C            3.59113970991551        1.23198339637591        0.81137147626152
N            4.31201084112438        2.01931487804630        1.23563999192588
C            3.32606844672835       -1.08533242681522        0.74332822485108
C            2.86515549423937       -2.35356750080942        0.50534289592270
C            1.64541356017642       -2.72951629672007       -0.09015637652332
N            1.50706227633269       -4.04676098759879       -0.39503888823613
C            0.54136404003933       -1.88483810461383       -0.30784884497568
C           -0.52612157518585       -2.48241196131433       -0.99710662168443
N           -1.36505943894616       -3.00792739484668       -1.58781850821975
C            0.36225284289864       -0.48551657844427       -0.03400331242476
C           -0.92654819808219        0.04319211758816        0.06602750372418
C           -2.19161732455317       -0.53985243424883        0.39975303806789
N           -2.45899986772197       -1.75458954026556        0.90201754654196
H           -4.20621480114396        2.90250725433819       -0.20296921237626
H           -2.69433599108818        3.66396616533958       -0.57822463281534
H           -0.29552558195960        3.30653325520419       -0.82921349212554
H            4.30885560162310       -1.01981147544057        1.19579711366492
H            3.53237458321999       -3.16970618058107        0.75000557338275
H            2.31619088408027       -4.64185273724568       -0.36926714489609
H            0.71362031590974       -4.35774061297601       -0.93094082015382
H           -1.77058797103246       -2.48538277642569        0.91066030288782
H           -3.42208246239077       -2.01065179937078        1.04491394487610
