31
 energy: -53.852241965964 gnorm: 0.000661196773 xtb: 6.6.1 (8d0f1dd)
N           -2.42820324474235        3.47972166193892        0.01595822876150
C           -2.13255721300233        2.36506693606580        0.02100118915276
C           -1.85125670044702        0.98751336536202        0.01635240961919
C           -3.01684983821784        0.17911720353218        0.07460673656596
N           -4.20973825453489        0.80624791395025        0.22813865992186
N           -3.15636379806567       -1.13552888186864       -0.00332705568400
C           -2.19459676964050       -2.04255643711088       -0.08728367293470
N           -2.67717662553633       -3.30539327081039       -0.23707759611689
C           -0.80034536050691       -1.89726500531872       -0.04724761213783
C           -0.00078233649411       -0.76235359794442       -0.00354219460098
C           -0.47395263060334        0.61738487131700       -0.02588300554895
C            0.45683367156423        1.65021217023977       -0.09458189907575
C            1.84405730958997        1.47234036040012       -0.09364955627401
N            2.67704381222123        2.54968959684948       -0.16358850061803
C            2.32118547237166        0.16840791043349        0.02760235054531
C            3.60161709596392       -0.42223199809012        0.11322307374044
N            4.82355401069668        0.20377192480183        0.13239887628868
N            3.51656175517306       -1.76585793496537        0.14386763308009
C            2.22119199040275       -2.07415125168639        0.09772101530386
C            1.39941117179002       -0.93218096565609        0.03897702804202
H           -4.28131922654716        1.80803581092257        0.21432175074224
H           -5.03691103262062        0.23868739960146        0.18846974538480
H           -3.66954776912531       -3.43582778706162       -0.15417346360647
H           -2.06964665482583       -4.09962652917055       -0.15598308319715
H           -0.25844337040930       -2.83376613212239       -0.07012120812031
H            0.09104731358719        2.66585430582586       -0.15594745567370
H            3.61395981623368        2.38920092767720       -0.49390396029287
H            2.26196715617524        3.43161248564845       -0.41859432648537
H            5.57813631384777       -0.44008716195615        0.32485763389758
H            4.87374842758954        1.05794385496461        0.66789880274897
H            1.93090507381229       -3.10899026606900        0.12253856757163
