28
 energy: -50.693743539432 gnorm: 0.000906203811 xtb: 6.6.1 (8d0f1dd)
N           -0.36034053976046        4.07284059606860       -0.66087248598030
C           -0.02936844319707        2.98792371911276       -0.47997356802522
C            0.42997136045882        1.67406130010840       -0.26659879270991
C            1.80596943870513        1.43372861208592       -0.23278219916532
C            2.24007961448653        0.15797223997895        0.02842336786980
C            3.52615461657975       -0.45353961331704        0.17130809340535
N            4.72770527775852        0.14053636671084        0.04173176804212
N            3.41408312866613       -1.76660959837694        0.41896236042504
C            2.10449309232988       -2.05125619268124        0.43258089281228
C            1.30505779186916       -0.92470150794027        0.19985454090518
C           -0.08845201126401       -0.72972808961507        0.09538865572853
C           -0.94678564702867       -1.81622085407398       -0.00101551672002
C           -2.34341680411311       -1.82712975763882       -0.21253001729975
N           -2.90639442763114       -3.01327488012771       -0.54003555643048
N           -3.21956510350763       -0.84430047307132       -0.07390739795998
C           -2.90459667173142        0.41553669644668        0.22770798909863
N           -3.94041450602021        1.16245611457225        0.66313350847863
N           -1.77779677464433        1.09071392373884        0.08824431924474
C           -0.53422506530670        0.65831425111181       -0.04043141331177
H            2.48948271549631        2.25793265945534       -0.38700532773749
H            5.54267732710787       -0.40194415882758        0.26826850361485
H            4.79399435120005        1.14198257752356        0.02507210664599
H            1.79263673668980       -3.06032596192781        0.63421927190846
H           -0.47312187399464       -2.78995277946964       -0.01314765844512
H           -3.89676608764347       -3.03956864951596       -0.70146290461057
H           -2.34972129411482       -3.83463242516853       -0.68703430990551
H           -3.80608956503125        2.15539060824130        0.73990227778669
H           -4.86538742495922        0.77318088229631        0.63388682123515
