31
 energy: -54.644035776853 gnorm: 0.000640714274 xtb: 6.6.1 (8d0f1dd)
N           -0.70653320517773       -4.14285623461437       -0.53586126264518
C           -0.39108401228715       -3.04686550015862       -0.37199347005572
C            0.07892389465876       -1.73696461791329       -0.19389290561685
C            1.48422322186808       -1.57850469363360       -0.17775331229453
N            2.30852027502808       -2.64710555434658       -0.32530565920490
C            1.96355435383251       -0.29656220750494        0.06702312633064
C            3.24474811012970        0.24336202677510        0.29455241763585
N            4.44710145526791       -0.40785707248968        0.34768501036714
N            3.18377103963736        1.58260105506553        0.45834184846467
C            1.91360314713125        1.94069758057411        0.33833209296414
C            1.06335832587690        0.83325476593650        0.09955003818791
C           -0.32304422783061        0.69620730963817       -0.04535953937684
C           -1.13799905435737        1.84315176905915       -0.24021807699858
C           -0.52099957552149        3.05844425904502       -0.61712021849295
N           -0.15568584699329        4.08236559338110       -0.99007088395194
C           -2.52725563850778        1.99676116079280       -0.15977219557762
C           -3.51231739244459        1.08104779651731        0.10359673117743
C           -3.36535772717147       -0.31316929330570        0.22874263048525
N           -4.49243090402132       -1.02645288977506        0.49546442097648
C           -2.18333214419050       -1.03597691414024        0.08780241942389
C           -0.84079091801957       -0.66216058721440       -0.05029569371393
H            1.89975940762857       -3.52123923424317       -0.61718826352573
H            3.26079294517214       -2.47299831377900       -0.59734478558640
H            4.45115576282895       -1.32084097711499        0.77682483736696
H            5.19908964174443        0.19487737081270        0.65011664707989
H            1.64337980592817        2.96946664334403        0.47402071467503
H           -2.86668138797940        3.01547905517311       -0.31385693629447
H           -4.52306583854625        1.46003068177001        0.18155878472801
H           -4.47021244125820       -2.03016124776782        0.45931462309139
H           -5.38880853928842       -0.57460448353881        0.47017294316156
H           -2.33144806924131       -2.11044050143204        0.13450514293609
