27
 energy: -42.146600458561 gnorm: 0.000502615259 xtb: 6.6.1 (8d0f1dd)
N            3.01297644839468        2.26448306273812        0.52356413264910
C            2.43314584896338        1.06123234520322        0.21076334243036
C            3.28791034213353        0.02308482358684       -0.17641692858251
C            2.90506056498169       -1.26138005788678       -0.54313163637614
N            1.77405326110400       -1.89155950779209       -0.39578122294729
C            0.56375266719884       -1.43668050833930       -0.06610883320420
C           -0.38848723753170       -2.42678341023971        0.19889023430759
C           -1.73683592317747       -2.15059981729580        0.34423572475157
C           -2.18360964155772       -0.85497478332402        0.17309734853432
C           -3.47367104534768       -0.28331606258917        0.18325784488849
C           -3.35360397991860        1.06691781082460       -0.08118258095625
C           -1.99243297496768        1.39105655660180       -0.24566931275924
N           -1.51761280249080        2.65116153618045       -0.54136736309693
C           -1.23313540676944        0.20883120514822       -0.06512430489949
C            0.14850092376951       -0.02694396431962       -0.03987964509003
C            1.03447738158576        1.03160938488370        0.17892390242782
H            2.44703844168620        2.96355444234480        0.97352899837740
H            3.99396996713979        2.27499303781168        0.74415311756829
H            4.34602800558089        0.24967088257342       -0.20870183169583
H            3.68979727503875       -1.89846071237343       -0.94702305670102
H           -0.02975179432505       -3.44337367675916        0.24639270339991
H           -2.43662652933799       -2.95161434187471        0.53811836292129
H           -4.39009241361489       -0.81703810914547        0.35718122119921
H           -4.16147353249218        1.77286615500422       -0.16338986455300
H           -2.22445341869377        3.28688382622644       -0.88306629559451
H           -0.66320589407388        2.67278026961602       -1.08039930705377
H            0.56260565372183        1.96604839439566        0.45794561335481
