26
 energy: -47.228648738860 gnorm: 0.000758128776 xtb: 6.6.1 (8d0f1dd)
N            5.49152448567310        0.04507278643521       -0.02393264340281
C            4.34436620094032        0.11992758940215        0.01846023392926
C            2.94162505490238        0.18997676938345        0.06325383937177
C            2.38054209775167        1.41935858884569        0.44454819494263
N            1.17123313491769        1.86191019751038        0.31896744543719
C            0.03994871882428        1.24684736777304       -0.01081518174767
N           -0.93449716806716        2.07579109259855       -0.36738736087266
C           -2.19260761923942        1.67085118327237       -0.42883159660017
C           -2.55944988688115        0.40135006114814       -0.04567876550797
C           -3.77849125083219       -0.33335241745914        0.08367758731244
N           -5.02983024807715        0.13710878117884       -0.03279058905283
N           -3.53770470390875       -1.62350871120308        0.37596707461650
C           -2.21152215188060       -1.77532231568176        0.43649922283538
C           -1.52286020911320       -0.57466719096757        0.20146136980667
C           -0.17142840786902       -0.20493968622943        0.10073011699154
C            0.83493629230224       -1.16257315547792       -0.01583244622184
C            2.21599046294805       -1.01384456901415       -0.16406007466880
N            2.93506856657245       -2.12197988608342       -0.45887970606963
H            3.07489096255666        2.15615679591686        0.84255952280086
H           -2.90418381389149        2.41589117722458       -0.76516653105223
H           -5.19784595196641        1.08231328688563       -0.32374164064791
H           -5.79282582894053       -0.51345379445732        0.02955046371790
H           -1.80197790246007       -2.74309660501454        0.66349223195120
H            0.48106830105334       -2.18616069331928       -0.07381214033807
H            2.48340109937234       -3.01498651902569       -0.54028324728658
H            3.93820467691258       -2.07580531394096       -0.51264962664530
