33
 energy: -58.091144092789 gnorm: 0.000654308208 xtb: 6.6.1 (8d0f1dd)
N            3.25216173225056        2.04213711164494       -1.17787123844073
C            2.60377714910645        1.24194054808210       -0.66086072820920
C            1.88694545949464        0.13150751305796       -0.17411854570648
C            2.65700219259590       -1.06201272991503       -0.10943982392684
N            3.99478914300385       -0.94506098453505       -0.31889592163286
C            2.18446660132371       -2.32931490548229        0.21546616782142
C            0.85969258472183       -2.73042131879168        0.40594631727566
N            0.65004025792711       -4.05047867446675        0.71691331192857
N           -0.26822285255670       -2.06497059263181        0.23278603132337
C           -0.47836163002827       -0.75761055303249        0.07008936938776
C            0.50507207951429        0.32472819658820        0.08421854175815
C            0.03781819449471        1.64325282126842        0.24525994361998
C            0.91689363448712        2.68284438574439        0.59490679968765
N            1.50704563370534        3.58712467406788        0.99577562175346
C           -1.33690386244031        2.01301117560709        0.15560555865162
N           -1.69484726276612        3.31196255352543        0.26283310782909
C           -2.25360079049508        0.99679279942866       -0.08247767191626
C           -3.65601567265754        0.98228297616679       -0.25663143971383
C           -4.08104764843263       -0.32792565301208       -0.37391062963704
C           -2.96644093590175       -1.17934547071096       -0.26079054897527
N           -2.93024188863273       -2.52407031580986       -0.27196752732435
C           -1.80763544907044       -0.36512360851305       -0.08942898423448
H            4.56049480450872       -1.77069399141651       -0.39247657568909
H            4.38120892522994       -0.06702557676578       -0.62012421600078
H            2.93264408673306       -3.10768986255654        0.30327651124361
H            1.41564299466131       -4.58796960175862        1.08304034214408
H           -0.27091368022508       -4.29099191023844        1.04272360900441
H           -1.00576671861485        4.00345360247647        0.50440451304487
H           -2.66648164076922        3.56002608159400        0.27241713300625
H           -4.29534284367721        1.84664188084514       -0.29404785068381
H           -5.09406476012428       -0.65243603923483       -0.52724534475195
H           -3.73257599742907       -3.06152373824105       -0.54693817972757
H           -1.99857570833717       -2.91975996068463       -0.24075004500930
