28
 energy: -46.672934055195 gnorm: 0.000548779039 xtb: 6.6.1 (8d0f1dd)
N            5.89470137890657        0.29673194080774        0.01538625183718
C            4.74865367820510        0.20657137439230        0.01315330575240
C            3.34622689311014        0.09144836806713        0.01171208297008
C            2.60213646847907        1.28009936863373       -0.07060245430648
C            1.24024303480016        1.42840232445107       -0.07538542551710
C            0.21034672622946        0.45933173155671       -0.01890042401573
C            0.43150124753026       -0.99025842709727        0.02650097395121
C           -0.66299619919484       -1.84354578193329       -0.00955005763103
C           -1.99370391145691       -1.41470648673359       -0.04788155557670
N           -3.00684173676189       -2.32728106087671       -0.10287982878199
C           -2.23106909886452       -0.03980377698489        0.01216621616735
C           -3.41443323742356        0.72167773902043        0.06124846656008
N           -4.70477895528404        0.24588363130590        0.12683466561985
C           -3.05045663300436        2.08634372202440        0.01092399307937
C           -1.68074434234358        2.18880804301820       -0.03424631036931
C           -1.11796435286803        0.88179280804868       -0.01842499090890
N            1.60272941589113       -1.65527000970676        0.09391207650848
C            2.82135975390964       -1.21371487324528        0.10139159395833
H            3.18906727575404        2.19008735883882       -0.13016170311611
H            0.88947096948381        2.44947659108415       -0.13833187326213
H           -0.45028782892120       -2.90217359622561       -0.01643698638197
H           -2.74417026050660       -3.27844193293253       -0.30724907240472
H           -3.88273005330785       -2.02151053873285       -0.49335899264519
H           -5.39764774362363        0.95526671453066        0.31730919982260
H           -4.83608435738664       -0.59450653943339        0.67035968191332
H           -3.74775667221708        2.90487167252534        0.02311126793736
H           -1.13907352164901        3.11570649666030       -0.06361260535725
H            3.56036445981447       -2.00967781906342        0.18272158689706
