26
 energy: -43.236195715906 gnorm: 0.000525117125 xtb: 6.6.1 (8d0f1dd)
N            0.20345870265020       -3.93120427118266        0.00183697864484
C            0.05428135938970       -2.79016157127267        0.00126012218511
C           -0.23519565595108       -1.41381592446386        0.00058035447921
C           -1.61215232765298       -1.06742424461349        0.00063284670212
N           -2.55451145238407       -2.02744534159429        0.00078077649334
C           -1.93845256002548        0.29131975909568        0.00009303342568
C           -3.16819554543394        0.95472357643420       -0.00005189171373
C           -2.91485113953304        2.32948489641315       -0.00057664967392
C           -1.54826495749356        2.54591180499016       -0.00070782609298
C           -0.89448476317988        1.29231224533020       -0.00031237829764
C            0.46475682825735        0.95745368232199       -0.00027586423109
C            1.41789494539260        1.99139678941346       -0.00044019817034
C            2.80145872821019        1.96486299425017       -0.00048957007268
N            3.66616599512268        0.96706321541919       -0.00061423055849
C            3.34492167263498       -0.31107211181243       -0.00053839752485
C            2.12059484859607       -0.96040893554268       -0.00015745061375
C            0.80489722973533       -0.46344004638864        0.00005564985286
H           -3.52590575767710       -1.77585752338562        0.00211675119004
H           -2.29458918178664       -2.99936669801060        0.00230344484016
H           -4.14356043681057        0.50190835987768        0.00012826046535
H           -3.66777453341096        3.09674976020968       -0.00083344781771
H           -1.08061723287323        3.51283727990565       -0.00108417443295
H            0.99164210320435        2.98567771318188       -0.00049535595230
H            3.29539246177517        2.93321475180620       -0.00049943744775
H            4.21982219629739       -0.95583102271643       -0.00076072236303
H            2.19006531494655       -2.04283405356595       -0.00002405211549
