32
 energy: -59.961674326209 gnorm: 0.000523311255 xtb: 6.6.1 (8d0f1dd)
N           -5.53149066447460       -2.86705634733783       -0.30795161912548
C           -4.52443874068773       -2.32463486848062       -0.22246735177977
C           -3.27795514064570       -1.66424584408238       -0.12419288634945
C           -2.13412544731823       -2.44645222986012       -0.35805582177278
C           -0.81665471346364       -2.08430085778064       -0.26485520490367
C           -0.19441619829815       -0.82905234541515       -0.07388967926796
C           -0.88094579228468        0.44627332989065       -0.01474058311563
C           -2.26501430084748        0.58659481260580        0.31592083441014
C           -2.66296932475071        1.82957973931079        0.87289772068822
N           -3.04271453193121        2.75284113345533        1.43910470044311
C           -3.30861134010396       -0.32537067763278        0.25707447695295
C           -0.14423206164905        1.62306196442328       -0.22570730465706
C           -0.78227248758385        2.84362947670084       -0.52575906845922
N           -1.16128483423229        3.86415761551134       -0.89589349906750
C            1.27894686970013        1.65555391642546       -0.27464160072665
N            1.92358983421386        2.81967177285966       -0.50197458537342
C            1.94715159937084        0.45614537053343       -0.03506143235117
C            3.31501886647539        0.15057833975098        0.10068245364469
N            4.37293665668699        1.01059707780233        0.13415193479162
C            3.42160186023764       -1.26920846287288        0.17690143432046
C            4.63506124926236       -1.94616271003919        0.33280262529390
N            5.65602452973608       -2.45543223538299        0.46992998052465
C            2.14907842597031       -1.82815834188592        0.11005970266435
C            1.20561236495251       -0.78694349042505       -0.00294130176121
H           -2.33064441103983       -3.48425785630715       -0.60008220873436
H           -0.11596563418934       -2.89280230802552       -0.42250603816886
H           -4.28292081130929        0.06762499109735        0.52816397028817
H            1.37488553732439        3.62510960201626       -0.76317216126244
H            2.88379199247612        2.79505554109260       -0.79884098318747
H            4.22372919197488        1.92414904760873        0.53289245797577
H            5.26291314479479        0.59172739200724        0.36339812696167
H            1.95169938053349       -2.88162934196361        0.17180711800483
