25
 energy: -38.707670922619 gnorm: 0.000624799449 xtb: 6.6.1 (8d0f1dd)
N           -3.13456402069076       -2.20480071004017        0.19494416679758
C           -2.44358237936902       -1.03628665148942        0.05882413728493
C           -3.19079226101013        0.14454961207150       -0.03254241268737
C           -2.70080848895523        1.43843109843111       -0.13010449391338
N           -1.48930184719823        1.92768656185239       -0.08406047171909
C           -0.31248387699626        1.30724232671306       -0.00463394573666
C            0.77468150135623        2.18836273136957        0.07530010570893
C            2.08987315274737        1.76853197998979        0.09151869472795
C            2.37103905508000        0.41518592178673        0.02181355010023
C            3.58262504339279       -0.29899030371853        0.00179807242107
C            3.27905158528109       -1.65216383438090       -0.07322351303921
C            1.89477765341236       -1.81633136372485       -0.09657087787952
C            1.29123936622373       -0.54637687986875       -0.03778236290851
C           -0.05786877832033       -0.14779931512029       -0.01912587916620
C           -1.04643676051168       -1.12657223545903        0.03176376075101
H           -4.13096356786375       -2.20794666236900        0.07013656444087
H           -2.65227807051761       -3.08154681090438        0.10937345784252
H           -4.26815866080999        0.03422404495992       -0.03322247661589
H           -3.45307447536238        2.21776133043737       -0.23980812086071
H            0.53459461922528        3.23983408822714        0.10488446158156
H            2.89070896076074        2.49352444849595        0.14278357464998
H            4.56552192035862        0.13389080296540        0.03868703619061
H            3.99621798655820       -2.45332683431143       -0.10818155772381
H            1.39707745180146       -2.76769329150009       -0.16047179231470
H           -0.67031829879252       -2.14196753371307        0.07694304366789
