28
 energy: -51.484487844169 gnorm: 0.000560194343 xtb: 6.6.1 (8d0f1dd)
N            4.97612003495868        1.81667414521474        0.74365212629636
C            3.98489494224538        1.25945659740570        0.57324325540652
C            2.81927935552359        0.52151743463379        0.35465458241308
C            1.50097178586769        0.95230123331278        0.50585387929330
C            0.63708111519769       -0.12072339215004        0.20682546406755
C            1.46212887079517       -1.25805501028548       -0.12967679615851
C            0.88864241699040       -2.47199874705390       -0.46399555581627
C           -0.47881704687233       -2.62453445725127       -0.34497342343469
C           -1.30691089558175       -1.58065488461111        0.08500037240469
N           -2.51542853761991       -1.92779409814180        0.52315485378227
C           -3.53666337842359       -1.18361136437597        0.81632375725008
N           -3.87373243541049        0.00925921046073        0.37208227342110
C           -3.02871343110154        0.90347091402018       -0.11650284197545
N           -3.61797776124352        1.95965455299766       -0.70776465456758
C           -1.59837777681140        0.90725207799711        0.01650340023346
C           -1.01782950515918        2.16150491461981       -0.23903001365688
N           -0.65144666746102        3.22802312204028       -0.47275114659451
C           -0.76105956629018       -0.22082932342984        0.17404204341748
C            2.81668115589784       -0.84184273236690       -0.05731355994186
N            3.91134116777558       -1.57194151613370       -0.33172461264541
H            1.21840163744054        1.93142955699328        0.84188188320371
H            1.49790258995890       -3.31624032013534       -0.75640721650365
H           -0.94282871755792       -3.58521782662855       -0.50182041205012
H           -4.30211784201531       -1.66990366221512        1.41528223440221
H           -3.08650874497070        2.76565095510373       -0.99004894303706
H           -4.62286138868447        1.99052041476441       -0.71220588369645
H            4.82294994125626       -1.16101978189884       -0.22693558674092
H            3.83316322469601       -2.54090586298618       -0.58146742167217
