30
 energy: -54.957276957414 gnorm: 0.000480597451 xtb: 6.6.1 (8d0f1dd)
N            3.16687859424406        3.32425003365455        0.06612383360023
C            2.31869056782860        2.55246935190157        0.03774687438358
C            1.25010561991760        1.63179356765398        0.00380539471022
C           -0.05399096750465        2.08717881667254       -0.06003211213356
C           -1.17527421364987        1.23490173703992       -0.07950570636472
C           -2.42497626442035        1.89859032576082       -0.15070743816841
C           -3.69899899904178        1.42313712855111       -0.08125707645438
C           -4.09628910955033        0.07163418447015        0.09927463800056
N           -5.40922643456115       -0.16160893215033        0.30964906341164
N           -3.36448591782695       -1.02026341373109        0.05520723828621
C           -2.05164859310477       -1.17210365173131       -0.08285900585487
N           -1.68306433751063       -2.43863531867469       -0.22556243237256
C           -0.98087387066004       -0.18871733545615       -0.05284553118660
C            0.33957357643228       -0.64841690030767       -0.02422338615432
N            0.77457462371311       -1.93993707043677       -0.02531180178120
C            2.10831541857946       -1.90208117168228        0.02175093425942
N            2.86314686593106       -3.02251205197694       -0.01887872899999
C            2.60975104213497       -0.56761140083253        0.05296564005315
C            3.95787293707932       -0.23438486950269        0.11593537622869
N            5.08990266378522       -0.03706060683008        0.18047126247658
C            1.47111818837715        0.24752402356810        0.02120896625444
H           -0.21965101893843        3.15495236484205       -0.08580275219365
H           -2.34285510310010        2.97497339404944       -0.25024192341518
H           -4.50462674655646        2.14408064243417       -0.12902189899508
H           -6.07148488298662        0.58847549374353        0.38321495170431
H           -5.70927499920524       -1.10977229883448        0.45181533331420
H           -0.66028467831475       -2.63755682441363       -0.21069155709119
H           -2.40398769669285       -3.14070571606964       -0.20877832627348
H            3.84377419645950       -2.94254631790236        0.18691984632028
H            2.41319973134249       -3.90736605890945        0.13457950913536
