36
 energy: -66.064094062404 gnorm: 0.000670840198 xtb: 6.6.1 (8d0f1dd)
N            5.54135869953053       -0.26827884371182       -0.16474126848969
C            4.41642611475819       -0.03324176564503       -0.08741681152189
C            3.04645127338817        0.25772431070488       -0.02437864886976
C            2.63964890563351        1.53435944223151       -0.50587367145791
N            3.42389675529734        2.20438463593675       -1.36846834435902
N            1.60322009914602        2.17774191139300       -0.01729926983572
C            0.53338848013255        1.69984892230658        0.56191119936719
N           -0.07947705674077        2.48793571772548        1.44894509811180
C           -0.05671776139984        0.40303844928130        0.26281777207334
C            0.75940263203276       -0.77730731411219        0.26214319809420
C            2.18225376198393       -0.72992203886929        0.49376017270429
N            2.75503826548944       -1.74522114769725        1.16621009315157
C            0.13005672323393       -2.03906710428677        0.08658186237429
N            0.88482892139528       -3.22846590049833        0.04888146992960
C           -1.25509949662282       -2.13713854893937       -0.06331868345878
C           -1.84807494441257       -3.39531941249357       -0.26542278709211
N           -2.31025420283583       -4.43443825518658       -0.43774210546047
C           -2.06212440005871       -0.98686090426642       -0.07288571169570
C           -3.42623398102337       -0.80984225071444       -0.24415824983356
C           -3.68331682375988        0.56867551055756       -0.25412486108081
N           -4.90827272974837        1.15516593136897       -0.36244437465042
C           -2.46901595685937        1.27402589521471       -0.05799363218360
C           -2.37246397319773        2.65398748047047       -0.10936013758865
N           -2.32230414913475        3.80782714449425       -0.15385757651899
C           -1.42965638987470        0.30831565443074        0.07624299811359
H            4.32748045238663        1.84267103211258       -1.62066228724347
H            3.19295085212438        3.15869748009843       -1.58414346940911
H            0.21481706209975        3.44845981630333        1.52342168783078
H           -1.00727795358468        2.25628446767861        1.76354773262521
H            2.19671781822700       -2.54577742041533        1.42150448764851
H            3.75843880333526       -1.79476770066992        1.23505990331025
H            0.30062053009014       -4.02770709739244       -0.16920674257224
H            1.68102777774517       -3.19191642982323       -0.57548938360360
H           -4.15776087262827       -1.58549162034750       -0.37102634781053
H           -4.93484852608301        2.13861209413382       -0.57686692670797
H           -5.66075571106898        0.59636198292201       -0.72690300429169
