29
 energy: -50.401231401474 gnorm: 0.000844635684 xtb: 6.6.1 (8d0f1dd)
N           -0.54884711120883       -3.82781010132399        0.64928915188700
C           -0.81877033733498       -2.73661660940211        0.40948346073160
C           -1.30722457233766       -1.43249121293709        0.17004577950058
C           -2.70607982103829       -1.42864511208422        0.11309960567285
C           -3.59600512558073       -0.40160993407408       -0.06894238289218
C           -3.31097652978816        0.97465792421277       -0.15354065438560
N           -4.37080025202863        1.80558823632945       -0.36347920462478
C           -2.05844223839485        1.56336549004405       -0.03936485936907
C           -0.75958764591518        1.04469687256798        0.07068562289345
N            0.14528386401150        2.02114917508945        0.20629259605180
C            1.45208573961171        1.78200194462901        0.19825917074952
N            2.26457616946202        2.86024103449539        0.37189473663368
C            1.93769689342157        0.49844106372148       -0.04442192514295
C            3.19953429087915       -0.08651849090208       -0.23972529467285
N            4.42347928117190        0.52589331416187       -0.27510697526908
N            3.09528556745520       -1.42813599633525       -0.37414356501692
C            1.81162049054468       -1.74155915944132       -0.27077267261201
C            0.99619426298609       -0.59935611102061       -0.07545999333273
C           -0.37953700085267       -0.36579929000391        0.04590981695617
H           -3.15020758471980       -2.41379155221191        0.21267437253710
H           -4.64262654932877       -0.67193449865796       -0.12901480393111
H           -5.30615659218091        1.44704731102715       -0.29040584491910
H           -4.24314213599085        2.79865032021979       -0.28403494123421
H           -2.05345793431117        2.64736765760402       -0.06087189078374
H            1.80492263201341        3.69961753351835        0.68674623681392
H            3.19873112459272        2.69560610418864        0.70628370932146
H            5.16146594144997       -0.09190910023980       -0.58022840899864
H            4.45357984703442        1.44730762253448       -0.68412672272685
H            1.50993258720398       -2.76525675274958       -0.37216500655591
