34
 energy: -62.616662589625 gnorm: 0.000831875687 xtb: 6.6.1 (8d0f1dd)
N           -5.35007519794076       -0.74892265590244       -0.80689160304331
C           -4.25829968220927       -0.48230893176824       -0.55000419533028
C           -2.92971367851324       -0.15505432818448       -0.24141312572925
C           -2.59547834949709        1.22147575846707       -0.26926229362443
N           -3.59364978840447        2.08329736344823       -0.58740333625127
C           -1.36008478557440        1.79286397443328        0.02845180758192
C           -0.08083475062975        1.25135830467146        0.16315224322365
C            0.98613924218524        2.18699320068717        0.33732880781824
C            0.70402031743371        3.54665967936551        0.55876342297785
N            0.51707072729935        4.66724391727250        0.73859361524733
C            2.32715567990580        1.82026189137571        0.27789633070356
C            2.62375814819904        0.50917703069708       -0.00403227068447
C            3.84545458653329       -0.18013576116028       -0.26607358000965
N            5.08153005495326        0.33327958924833       -0.24316096508881
N            3.62389233681824       -1.46255547964818       -0.57768955218150
C            2.30081659830227       -1.68016730125089       -0.49020743812954
N            1.83594409876870       -2.86305102739273       -0.91715808838844
C            1.58499892502935       -0.48423125820707       -0.10574971432579
C            0.24593653384707       -0.15537418157228        0.10780674062967
C           -0.71664757179846       -1.18021454938756        0.40281539874303
C           -0.18979958717970       -2.32472677360923        1.01039692137388
N            0.19960920891161       -3.27468440032247        1.54001260263363
C           -2.11102464042916       -1.21729537918945        0.20874943353460
N           -2.73560093166962       -2.40395365387917        0.42199052294984
H           -3.42965907359352        3.07324661665886       -0.56289022927448
H           -4.52496102647933        1.74720534328858       -0.75940653654087
H           -1.38575960422054        2.87687392794292        0.05629558651639
H            3.09298033353110        2.57097040626327        0.41165774818972
H            5.85822631088279       -0.26572227755736       -0.45802251099503
H            5.23535671309863        1.29728353326556       -0.01426354825419
H            2.55042897797100       -3.54569597479152       -1.11634922222251
H            0.94019915857213       -3.20924584386504       -0.61931676717090
H           -3.73865986951373       -2.45614458416025        0.37238270922870
H           -2.23052495008747       -3.17679530283661        0.81989950179540
