25
 energy: -44.302380744200 gnorm: 0.000470899168 xtb: 6.6.1 (8d0f1dd)
N            5.20416411775927        0.78274631262836       -0.63021628214906
C            4.14492466013962        0.37747275108669       -0.45469781976812
C            2.85554139658090       -0.13396576409162       -0.24364194049725
C            2.55640366825931       -1.48138222831179        0.03767014273385
C            1.16943634873381       -1.59401554470501        0.13489935669690
C            0.34205024205019       -2.68367084404243        0.37230818323952
C           -1.02328850387264       -2.51003941148035        0.32819829820867
C           -1.63028980817832       -1.26394195627397        0.08899460594252
C           -3.00254687932785       -1.27902181689069       -0.19997740662391
C           -3.85266907452915       -0.23367829273064       -0.53438969865520
N           -3.72279113556150        1.05438377649825       -0.30505818260652
C           -2.65698820724771        1.66259543193831        0.15066201066125
C           -1.32120816308748        1.23856595441756        0.20612928906829
C           -0.45597796460488        2.29389366652164        0.58565221363782
N            0.14112816125010        3.20205005615366        0.95415722721353
C           -0.78470089291148       -0.06515602296924        0.03118985895407
C            0.59411851350275       -0.27140411884773       -0.05445467018074
C            1.67027393630201        0.60745936575657       -0.29711322515114
H            3.27317521092866       -2.27349856694227        0.14733748922658
H            0.76336330423614       -3.66289795673039        0.54646036044492
H           -1.66882491951981       -3.36816815198442        0.44413180496117
H           -3.44443675528980       -2.26729379399830       -0.25451419374775
H           -4.81479654373224       -0.49464666311368       -0.96311302058187
H           -2.84199460274158        2.69272718829922        0.44339696399608
H            1.61733268826059        1.65259456161688       -0.53262149252292
