33
 energy: -62.121235893945 gnorm: 0.000854794360 xtb: 6.6.1 (8d0f1dd)
N           -4.58327486470013       -2.31197366242090        0.40225393188758
C           -3.73655676416688       -1.54784228470976        0.24235776016914
C           -2.72424120761294       -0.59267030450614        0.05577819011268
C           -3.09685374424349        0.75549863437209        0.27186835574635
N           -4.25685346822390        1.01929153708770        0.90803261071981
N           -2.46671012861163        1.81038328898926       -0.20891019340870
C           -1.21537997512274        1.95258675191949       -0.56443622291096
N           -0.97063277741429        3.02158291025069       -1.34042774257494
C           -0.09384878062967        1.12467126201801       -0.17085204877580
C            1.14728176954216        1.73717009720036        0.09457856927744
N            1.24980537838988        3.13025323971660        0.18115821646856
C            2.32404809750725        0.98388730498534        0.25305047259689
C            3.53178019810490        1.62507699397828        0.57574772113773
N            4.48730902774154        2.19944442469942        0.85586802915711
C            2.26304318886032       -0.39757902882725        0.07635483915689
N            3.21481680616843       -1.33585292370650        0.11033039476655
C            2.54281682305021       -2.47684072471194       -0.11142787797295
N            3.16223069946307       -3.67691928094317       -0.11243530488154
N            1.21284884722267       -2.35825030124885       -0.29202652347228
C            0.98540041711236       -1.02788638160334       -0.17587445793483
C           -0.21069462460419       -0.30717632822845       -0.21862132339404
C           -1.43608122664320       -1.06767757882780       -0.28990701150744
N           -1.31029035494818       -2.36099456852316       -0.58510249704000
H           -4.88186321439320        0.27113395054435        1.15434068882801
H           -4.58049902988285        1.96938700253821        0.93942300766784
H           -0.02595060559452        3.27027719260852       -1.57926013361796
H           -1.74136813303446        3.60616143254278       -1.61285584118130
H            0.48002191696358        3.59027624403156        0.64532536476082
H            2.14636021361674        3.42972437734433        0.54272914733522
H            2.66948114447376       -4.45637908373631       -0.51100175249624
H            4.16447594494473       -3.65812796400294       -0.18392509925645
H           -2.11262825828217       -2.96611626743177       -0.50682906081709
H           -0.34161576934583       -2.73891688489056       -0.58740223724963
