28
 energy: -45.886851700807 gnorm: 0.000590478695 xtb: 6.6.1 (8d0f1dd)
N           -3.21197145816380        2.19261809859549        0.00797880912027
C           -2.67910098019199        0.92909935879279       -0.00177592762119
C           -3.59951713278233       -0.13424873061696       -0.09028056388583
C           -3.29872097418083       -1.48560571760168       -0.09617446567738
C           -2.07085553934947       -2.10671806418083       -0.03094608793943
C           -0.77455104027815       -1.54085185752059        0.01780099958362
C            0.31003575391369       -2.43562527428310        0.06299643046165
C            1.64113016243220       -2.05599535561375        0.06832770201810
C            1.92744872882267       -0.70769520889844        0.02766294939201
C            3.10223491107610        0.09959617113413       -0.00826356375684
N            4.38349042667161       -0.33602479725562       -0.05325455647380
N            2.81517070690644        1.41126726195400       -0.05901841998623
C            1.47347538023940        1.51066093963801       -0.04723067832932
N            0.79251182255984        2.66247370270151       -0.05491568027039
C            0.84368586074834        0.23186220110238        0.00707235668137
C           -0.50191460658027       -0.11556293343846        0.00960088643672
N           -1.36247506941719        0.92732384491002        0.02926803356434
H           -4.18708643595825        2.30749318660718        0.22123895000694
H           -2.59532024891399        2.94564325047820        0.26146774311559
H           -4.64398642207901        0.14451610480371       -0.13509190005699
H           -4.15508855076795       -2.14914138375111       -0.14767552465189
H           -2.09164605866496       -3.19015850281835       -0.03218472015723
H            0.07749394515709       -3.49186531653815        0.08448444301914
H            2.41839632749019       -2.80777176935058        0.09206110053081
H            5.09907300474720        0.35665618709210        0.08725353578177
H            4.57824455513431       -1.27841259695096        0.23618734300424
H           -0.20989261807900        2.52692669297907       -0.15089154391246
H            1.26001040700804        3.52561635112989       -0.26709416069766
