30
 energy: -54.930077581493 gnorm: 0.000560142609 xtb: 6.6.1 (8d0f1dd)
N            5.11570750878971       -1.48107832499191        1.11790591090991
C            4.07311193801897       -1.09008502540548        0.82943777433286
C            2.83473073906618       -0.53956196181676        0.49406419601945
C            1.61052644903260       -1.19832810239415        0.40149053676577
C            0.61852888521414       -0.24580356967585        0.09688785867976
C            1.27679800694518        1.03824153637097       -0.02165904775037
C            0.51085274797640        2.12828724808503       -0.45953309422507
N            1.06147114065976        3.30153653180114       -0.85802792331153
N           -0.81686291197566        2.08211222654574       -0.42332125055817
C           -1.46033681548550        0.96701256541099       -0.11100365267129
N           -2.70935642963961        1.14361747499202        0.27027535647762
C           -3.72864553243526        0.33035575829982        0.37221459522560
N           -4.78107326836645        0.81523614910167        1.06680584309658
C           -3.86567278991070       -0.94276589103047       -0.24920617879362
C           -2.81868570413658       -1.74577321144671       -0.60587498956300
C           -1.43697349666244       -1.53197320620184       -0.43000938808203
C           -0.66743284178004       -2.67425895276393       -0.74358779868051
N           -0.11530853386599       -3.63975629049650       -1.03195888716896
C           -0.76373317305558       -0.33706218723566       -0.10596875899744
C            2.64246365512394        0.85031501560986        0.22870428469392
N            3.63731857063869        1.78800403512054        0.19740671204596
H            1.46232725231165       -2.24637310017127        0.57525756747066
H            2.01247658914911        3.29980785449661       -1.18532919402584
H            0.42383014528327        3.96395193822078       -1.26969338676235
H           -5.63441132747867        0.29537133859349        1.15539796278900
H           -4.70608698626163        1.73298260039584        1.46846345966175
H           -4.86998205205972       -1.32102761144592       -0.38033880632464
H           -3.07278681619322       -2.71721211087717       -1.01575155287830
H            3.38293920630089        2.73208897062543        0.44360917410325
H            4.52822054720302        1.48129314058851        0.56063253601485
