31
 energy: -57.875237245578 gnorm: 0.000601190556 xtb: 6.6.1 (8d0f1dd)
N            2.78886771313707       -3.39291457508817       -0.04818115863256
C            2.39706258686379       -2.30976264949292       -0.03310224058947
C            2.01185635817821       -0.95894953897048       -0.02083195121758
C            3.05786987542771       -0.00612164952503        0.15109307331752
N            4.29204882823681       -0.48955298322019        0.41385701802783
N            3.01655532112407        1.30864925332454        0.05787734222530
C            1.93514879961395        2.06850991120217       -0.13632364652758
N            2.25316115308998        3.37965023443582       -0.31587697961869
N            0.64306697546678        1.82932265743467       -0.09920534742095
C            0.03432932100679        0.62726623180780       -0.03817413407864
C            0.62380796039163       -0.70748226268064       -0.10433036745211
N           -0.12820871943274       -1.80444499659615       -0.21193508229622
C           -1.45710480922536       -1.77957275161082       -0.17623996752644
N           -2.07577385965438       -2.99102292960828       -0.29612290884341
C           -2.13499322723947       -0.57853844859755        0.03481127136414
C           -3.46924450722620       -0.12813222360663        0.19626475272208
N           -4.59553844952119       -0.88573110525434        0.22425857379140
N           -3.54816155010572        1.21662656571590        0.28574179715227
C           -2.29510100160543        1.68018684900118        0.20154596906153
N           -1.93687977673550        2.96280960308057        0.24877337962222
C           -1.34550649776949        0.61603641738251        0.05993035402016
H            5.04881416330619        0.16537302139269        0.49441762424750
H            4.46343258011030       -1.47933818994402        0.44267267390618
H            1.54026505936962        4.01265474514614       -0.62977896694624
H            3.21941169175222        3.60578498933871       -0.46718742075363
H           -1.45794370398910       -3.73841892336587       -0.57390949441694
H           -3.00308190548873       -3.00836844847193       -0.68629648134822
H           -5.42831325610395       -0.38918947319755        0.50056400244474
H           -4.51042881163656       -1.83105221609735        0.56063645491767
H           -0.93926634919996        3.12727460280833        0.18708355391451
H           -2.61788800754164        3.69106667545682        0.36446424923383
