31
 energy: -49.037719431012 gnorm: 0.000608813712 xtb: 6.6.1 (8d0f1dd)
N           -4.74720444096999       -1.21966914986960        0.28971681670653
C           -3.54179873087541       -0.53282237226024        0.23927914769807
C           -3.40516441199860        0.86254627863275        0.28444329910258
C           -2.05382755463304        1.15799990244961        0.15264096635803
C           -1.34110985622111        2.34985021590632        0.18370885456107
C            0.02676114227641        2.33484808226435        0.05495703287743
C            0.77305857526505        1.14544172033814       -0.10312795569517
C            2.19803198542657        1.26241869115432       -0.21009165819403
N            2.71095774541852        2.49885733029779       -0.50672850658345
C            3.13399584378310        0.29606567796119        0.14163978833369
C            2.90013634210078       -1.05904162848493        0.38219676707281
N            3.89153704597512       -1.80894487000276        0.95093389932162
N            1.88765346630253       -1.76528206083477       -0.09329176457968
C            0.72883939864321       -1.33054363345706       -0.52686587718123
N            0.06419173005203       -2.18766143801539       -1.32363657659373
C            0.06201397926183       -0.09752263526637       -0.17615463502602
C           -1.33047385072006       -0.09787008484534       -0.02356243558484
C           -2.29033763381220       -1.12141839102232        0.04481237898723
H           -4.67185774414245       -2.17493869863271        0.60746570205195
H           -5.49248179931061       -0.71301795117864        0.74433197239147
H           -4.20432831675709        1.56864123112847        0.41950006240539
H           -1.85815619660802        3.28819638361989        0.33310168079770
H            0.55275238246434        3.27262585546812        0.15663311973627
H            3.70040974427080        2.55971053650747       -0.67580970494105
H            2.13098849331769        3.14925208307004       -1.00580480950932
H            4.15978621571518        0.63027736013218        0.24552162100250
H            4.58301313276749       -1.34789516244440        1.51481599633553
H            3.65010556631447       -2.75475955885214        1.19206774396475
H            0.47048515623512       -3.08441674697062       -1.52268276130929
H           -0.86839934413686       -1.96227018056818       -1.62340056135161
H           -2.12095814410483       -2.18462759772491        0.04280498304463
