29
 energy: -50.410876687473 gnorm: 0.000625913826 xtb: 6.6.1 (8d0f1dd)
N            5.40380447823339        1.20403546324354       -0.05870889300858
C            4.34193486796928        0.75933194436771       -0.04907947701780
C            3.04620324936793        0.24607142108347       -0.03656263192423
C            2.68788664295399       -1.11631605814335       -0.01442138185919
C            1.29780169585293       -1.20662547032445       -0.00523946002107
C            0.36881602591131       -2.25880515584210        0.02058909556504
N            0.74370566240277       -3.55586796027563        0.06837196243991
N           -0.94233666887013       -2.03035736509867        0.02529792585124
C           -1.45732110545270       -0.79552680462148        0.01412180573350
C           -2.85564437844633       -0.78132828166262        0.01781869848458
C           -3.75698622349164        0.28280035836318        0.00590176212339
N           -5.08016741912892       -0.02976395929497        0.04065934251684
C           -3.42675418679618        1.64923276433769       -0.01070701197479
C           -2.16221890718337        2.20879924579079       -0.01672468878688
N           -0.95663869217811        1.69434603794608       -0.02022557692084
C           -0.60106948898853        0.39684134748833       -0.00999532397073
C            0.76326276132184        0.13127476433156       -0.02284243483153
C            1.86681065654756        1.02980773083797       -0.04230647524589
N            1.73961301339492        2.36391512049891       -0.07313491792530
H            3.39248065812548       -1.92861648043106       -0.00420441402585
H            1.70662696628271       -3.80971752197478       -0.04963003453345
H            0.02913211494665       -4.25850542041718        0.00238593557366
H           -3.29046940367226       -1.77353432103943        0.03195656018615
H           -5.77103218930846        0.69017436456969       -0.06854313366396
H           -5.37158650086306       -0.98692293009585       -0.03912263802856
H           -4.25849337745780        2.34216164981386       -0.01703958564838
H           -2.13663994488451        3.29820776916278       -0.02524618930467
H            0.78697969920864        2.70509479215426       -0.03965114297030
H            2.54056405390258        2.96853975863166       -0.03669120731235
