23
 energy: -35.265270471298 gnorm: 0.000601361216 xtb: 6.6.1 (8d0f1dd)
C            3.33249464202670       -1.20087904967843       -0.00021705233878
C            3.36660406514879        0.19167940682205       -0.00012246342698
C            2.04461751295687        0.65322234437102        0.00009615603875
C            1.49500631571339        1.92213302346862        0.00027379600934
C            0.12036099413187        2.06671233243063        0.00048150845579
C           -0.76583663211167        0.98020080904466        0.00049794915079
C           -2.14086931769840        1.30497447930377        0.00074704614138
N           -3.24934167606513        0.60691164981468        0.00057434490385
C           -3.36709123732412       -0.70624204385812        0.00035677074799
C           -2.38760191755392       -1.69769144353589        0.00045644922769
C           -1.01660120861700       -1.54200895000575        0.00045456948228
C           -0.22471088159567       -0.37885628703532        0.00033707185864
C            1.16823437909302       -0.51301562917521        0.00014554288785
C            2.01122210152154       -1.63927498668910       -0.00005479232407
H            4.19522418847620       -1.84353245645485       -0.00038978853768
H            4.24750564447278        0.80664970043846       -0.00020246218608
H            2.13155224138403        2.79591362757237        0.00026077234553
H           -0.30128009523778        3.06186959596991        0.00063194712419
H           -2.34606427318523        2.37455664178662        0.00106207480427
H           -4.40212762701500       -1.03537041042021        0.00014774600891
H           -2.75442959012799       -2.71680776253138        0.00047350321506
H           -0.44857775310135       -2.46327095742979        0.00047005067796
H            1.71098098430808       -2.67128617900874       -0.00009660136669
