32
 energy: -48.742643923624 gnorm: 0.000597050410 xtb: 6.6.1 (8d0f1dd)
N           -4.14259028383724        1.75991575129059        0.75535230726520
C           -3.01920940869515        1.06277070702688        0.36363829177215
C           -3.12948120357637       -0.31909838930149        0.27007659925500
C           -2.18230630805877       -1.26262907550704       -0.11468077578036
N           -2.69583791998166       -2.51881900399254       -0.35097067740625
C           -0.75971943609569       -1.12158025269332       -0.10334262878826
C           -0.00776229911209       -2.31624917939022       -0.01107599070929
C            1.36314629519877       -2.34497424115127        0.05544710979182
C            2.07411251353584       -1.15421244753554        0.06081767454254
C            3.43019580102245       -0.87439621869125        0.19308041445746
C            3.57152895019373        0.51816387594279        0.23905013754928
N            4.77919415191823        1.20028134267898        0.32961387554136
C            2.32000946922638        1.12047156352126        0.09346445093186
C            1.34928917181677        0.10771620249602       -0.03195646575231
C           -0.04977295102177        0.12874565574886       -0.17259945138285
C           -0.68156050664086        1.38634554537481       -0.48965296094820
N            0.09499147317583        2.30432086907879       -1.12362566917802
C           -1.94757980580441        1.81037525413529       -0.12465117052891
H           -4.01139766418741        2.72048774185580        1.02450992431679
H           -4.82777207102666        1.25544785049332        1.29245785400972
H           -4.12262035938621       -0.71381123749534        0.46021963219525
H           -2.15608327846510       -3.14606750769017       -0.92059155883814
H           -3.69363707480109       -2.58101187759380       -0.46585669065495
H           -0.52792828710316       -3.25623008385323        0.09124914459550
H            1.88104699534427       -3.29063837084736        0.14328338781459
H            4.22477424431543       -1.59324931153065        0.28060026959470
H            5.52293056493468        0.66182624617578        0.74897576487307
H            4.70339690985366        2.12883728200942        0.71893972125684
H            2.15921205267075        2.18058048114656        0.17791988032873
H            0.97048991403020        1.99812828315198       -1.51377035211928
H           -0.32480099464380        3.15026262983283       -1.46511474062798
H           -2.14257630639415        2.86962615241868       -0.25606361747685
