34
 energy: -63.399100713665 gnorm: 0.000617525542 xtb: 6.6.1 (8d0f1dd)
N           -4.66753411683190        2.26108678959102        0.04150111296032
C           -3.64753413382605        1.72723180544217        0.02803620594916
C           -2.39850229142273        1.07884839962283        0.01272610615158
C           -2.41413574482522       -0.27170942213235       -0.42232926302374
N           -3.57392714595806       -0.72005447405531       -0.95425174272361
C           -1.35749824369290       -1.19235097548011       -0.27920694439733
C           -1.67832306534561       -2.49917062777217       -0.71110872854060
N           -2.00232965105638       -3.49928204768418       -1.17821579474854
C           -0.00266277313717       -0.99495713149494        0.10355695334730
C            0.75076733598602       -2.12474077983762        0.48273168084489
C            0.11350077146524       -3.28684586958599        0.96545489214542
N           -0.32604334328267       -4.21999397372803        1.47011897084166
C            2.15402455774220       -2.12121516845643        0.48355958710895
C            2.80235967793941       -1.00397270165218        0.02975488592134
C            4.18457400346925       -0.75064681581732       -0.20864858319675
C            4.31321279001958        0.52094222416397       -0.69134075987173
C            3.03057613040822        1.13898459288705       -0.75168479174545
N            2.83463492647616        2.31980240223045       -1.35953736790223
C            2.06880020125116        0.20511508105585       -0.26001171001724
C            0.68855680643647        0.27798210122612       -0.00455971476962
C            0.06751380812897        1.51378921885101        0.31313324965153
C            0.94406612122947        2.53425738220537        0.71793401407823
N            1.63266675898110        3.39146181253152        1.06382562363763
C           -1.30326798357436        1.85543426660395        0.44015096543350
N           -1.58712808147010        3.08435331697928        0.93324080443695
H           -4.38449331460262       -0.12461228353384       -0.97332306609781
H           -3.68123664092052       -1.69520904962604       -1.17878045520895
H            2.68844615271184       -3.01025804268659        0.78266088168610
H            4.97393685569131       -1.45941684880697       -0.04257624418026
H            5.22191064071516        1.00055049957110       -1.00472414535585
H            1.94708282154889        2.78918447609561       -1.33211730729038
H            3.64092838134408        2.87410224489829       -1.59351065475992
H           -2.54345179037684        3.37662812711931        1.03958331091833
H           -0.85342138102139        3.68715969877042        1.26341546271799
