32
 energy: -58.375515221916 gnorm: 0.000662193773 xtb: 6.6.1 (8d0f1dd)
N            5.34449771954995       -1.93602744496639        0.00569939516546
C            4.27224572218731       -1.51860122276744       -0.03383542890888
C            2.96338407503583       -1.00660785943452       -0.07862430619871
C            1.95876782298220       -1.95096939795605       -0.35059712690440
C            0.59996001731258       -1.82171896281865       -0.36095038314545
C           -0.21666235756675       -0.68501816510949       -0.13564463755934
C            0.25811890248589        0.68700447566315       -0.11405810534043
N           -0.57431217917985        1.72317683880771       -0.21181632613634
C           -1.89646940998369        1.58461074368953       -0.22121951469387
N           -2.61281043523105        2.73032847214283       -0.36815110559121
C           -2.46978421219673        0.33022666958299       -0.01574129717388
C           -3.77407436392141       -0.18276409843929        0.15014317416833
N           -4.94510607537632        0.50858901561427        0.17414802782831
N           -3.76492885971118       -1.52430794647462        0.27399834035932
C           -2.49171255468702       -1.92382105193267        0.19428023529416
N           -2.19012155229367       -3.23999907809376        0.30550404375427
C           -1.59716776433947       -0.81656795553388        0.00301152245169
C            1.60766739115307        1.10695599362241        0.01915734339113
C            1.73317298464002        2.51220940418065        0.10572950025571
N            1.91603616627035        3.64585554458122        0.17651483603068
C            2.81752660131811        0.38711618780615        0.11569698331617
N            3.94032785541208        1.09199219119726        0.38683521530213
H            2.33952285144679       -2.94610143103720       -0.55489194474067
H            0.05166280395752       -2.72076028682482       -0.60738696950177
H           -2.06555002947576        3.53855116688786       -0.62035367412607
H           -3.54437738614580        2.66979352845057       -0.74180759920280
H           -5.74272082595813       -0.04212102739129        0.45291001136461
H           -4.91752220608180        1.44923103656682        0.53354971553654
H           -2.96497475312711       -3.82220559475018        0.58384317507653
H           -1.28460548937018       -3.49486640348268        0.66464381817406
H            4.83433415896519        0.63085576699057        0.38921803555465
H            3.90077502432825        2.09460150822949        0.45809994250021
