26
 energy: -47.232385464484 gnorm: 0.000842950940 xtb: 6.6.1 (8d0f1dd)
N            3.08672711124222       -2.93071085544686       -0.41986725260453
C            2.72149892949957       -1.85167216329948       -0.27776523442593
C            2.32813030854863       -0.50588764428098       -0.09251911243373
C            3.32215135444352        0.45181893119906       -0.30960946183778
C            3.27004915727334        1.81004869749890       -0.07908998622943
C            2.16124726876963        2.50681977334904        0.42815853282037
N            0.91064807061927        2.16939097949155        0.44910868538797
C            0.31638248150323        1.00998575383470        0.17466913575886
C            0.94222592317600       -0.31883349469471        0.17167678525034
N            0.23965667067736       -1.43021882355740        0.30425173673323
C           -1.09828777466547       -1.43295374862409        0.26290132345545
N           -1.68676839920922       -2.63097774352987        0.46932285739345
C           -1.79343237130989       -0.26227727975316       -0.04035331800115
C           -3.13766910395342        0.11291881273466       -0.24022209563066
N           -4.23609708310508       -0.69032766163976       -0.30993631580182
N           -3.26249362346740        1.45913603568275       -0.32321112430246
C           -2.05184800602138        1.98087045274618       -0.19093871390212
C           -1.06334261504220        0.98514582309583       -0.02721588828260
H            4.27407696765357        0.05077944521271       -0.63857676208427
H            4.17472995981967        2.38036127281243       -0.23562493154161
H            2.34217464794002        3.50941864977614        0.80881889723859
H           -1.08198558691784       -3.37280490948758        0.78320358363072
H           -2.66260942930923       -2.67114073498437        0.70565793054033
H           -4.11330180871614       -1.60883918346516       -0.70632769052049
H           -5.07489225568101       -0.20698461385883       -0.59392331097604
H           -1.90204502236787        3.04306773688796       -0.22573472523483
