29
 energy: -49.592380534731 gnorm: 0.000386185361 xtb: 6.6.1 (8d0f1dd)
N           -4.00904340593601       -2.24622648156789       -0.32165383157399
C           -2.90904667950284       -1.48803076294097       -0.09010287459471
C           -3.07165526252670       -0.13703122761808        0.17356855503450
C           -2.12687726014046        0.90165062325747        0.25759647472949
N           -2.64602775840184        2.10581322677431        0.59039458396811
C           -0.73133582655682        0.81283186149968       -0.00985660110219
C            0.07181259733218        1.97767574981105       -0.17898915054842
N           -0.50904841119307        3.25850297126543       -0.34121288167532
N            1.38838749361876        2.01637884165566       -0.19348723466592
C            2.05729665162320        0.87274049395876       -0.06062038198187
C            3.40857583507557        0.57660881667089       -0.00835738834580
C            3.46439089566323       -0.82930852384746        0.05347656406718
N            4.59155160828078       -1.59421047242128        0.06051091494766
N            2.25034620352904       -1.42216597103088        0.04834072899406
C            1.36705873945070       -0.41473166726774       -0.00660487640165
C           -0.02881218784116       -0.46212085804189       -0.00390046421646
C           -0.57877631929839       -1.76218921336399        0.03047665290292
N           -1.78363158629644       -2.22937370215699       -0.07680032133198
H           -3.87501226487039       -3.23701136282299       -0.41434025522550
H           -4.93579021708581       -1.86820238649861       -0.26135920231404
H           -4.10156343566291        0.18286834643396        0.29804216585305
H           -3.60006205024982        2.16351413768523        0.89853245600255
H           -2.01355462517728        2.88015006853269        0.74065098462375
H           -1.14958498634052        3.30279577652674       -1.12578173957535
H            0.24676146959590        3.92431826075679       -0.46674584368752
H            4.24131326865167        1.25044057282539       -0.02155585250171
H            4.45567939729584       -2.56179010281055        0.30224744663011
H            5.44412535163345       -1.16327951646049        0.37520034464112
H            0.18153791373012       -2.53528584640460        0.10684236604796
