26
 energy: -42.438722050308 gnorm: 0.000607029630 xtb: 6.6.1 (8d0f1dd)
N            4.62422516649706       -0.72337962720917        0.22598594609926
C            3.32984152999897       -0.32613942231735        0.06683413101971
C            2.18411586788511       -1.15070794276279        0.25644002979798
C            1.09559240080750       -0.31643786580347        0.08380088841308
C            1.67306509530563        0.99096529772008       -0.22178503587788
C            0.85722647999122        2.06294335665521       -0.48520408492737
C           -0.52460593700861        1.89874458891521       -0.36907340379694
C           -1.11993992262226        0.67840479407506       -0.09439739264504
C           -2.54177114928375        0.63777399573509        0.18407693215656
N           -3.09650165086935        1.73667558439738        0.73816810270675
N           -3.40165005880015       -0.30056711200312       -0.12344310027591
C           -3.19207299591690       -1.57200951552975       -0.39663881454298
C           -2.06188832116669       -2.32206420127035       -0.13157514999272
C           -0.79094630004942       -1.82126648862618        0.13700541924430
C           -0.31172775259530       -0.51619908804337        0.05450533479971
N            3.02452103462142        0.93614563698655       -0.22122299120498
H            4.82928014258182       -1.70114853479785        0.10830315854676
H            5.31506861115623       -0.07560455852250       -0.11556086282595
H            2.21294098685676       -2.19718864740590        0.49445821644346
H            1.27562425892380        3.02445005596043       -0.73850201155610
H           -1.15491221115183        2.76268493768976       -0.53082399557559
H           -2.52667358797628        2.49378571181832        1.06845116608438
H           -4.07912509503202        1.71667665309178        0.94966614529079
H           -4.07406792205075       -2.07795652339966       -0.77590848714398
H           -2.16303109720514       -3.39767911058020       -0.18923622642009
H           -0.02862627879693       -2.57004492517329        0.31110744738267
