30
 energy: -54.938370248909 gnorm: 0.000863819390 xtb: 6.6.1 (8d0f1dd)
N            4.32755185091899       -2.67329608101168       -0.19639774746386
C            3.53645346395060       -1.84007635738169       -0.15675445846361
C            2.61344596992685       -0.77842551899538       -0.09702492257219
C            1.27530420054068       -1.05601060591631       -0.27280134380837
C            0.15424653837272       -0.21941804833055       -0.15239909324603
C            0.14924705332920        1.22585838781301       -0.09081692178530
C           -1.05747900283352        1.90562598858276        0.09676354243038
C           -2.28493368468860        1.25909783841380        0.21656019059908
C           -3.45262397587830        2.00970853499372        0.44524765711825
N           -4.40331813809017        2.63007342039342        0.62318152935686
C           -2.34296098416197       -0.13489818597302        0.08082769682311
C           -3.33820265724392       -1.09615970163934        0.09374378126826
C           -2.66636251586828       -2.32100330852766       -0.09438891315109
N           -3.21986139265020       -3.55549419122650       -0.11156080977789
N           -1.32600991127520       -2.17726009916461       -0.21920234259401
C           -1.09274741536647       -0.86636723334291       -0.12162855615637
C            1.34105769600719        1.98608996415500       -0.32528807140537
N            1.22852450929801        3.22595175470478       -0.84031722986408
N            2.58655136477554        1.67089454323920       -0.00983438088180
C            3.15025117478830        0.51666294082706        0.23514594644960
N            4.38269709185794        0.56869574453043        0.77233798208404
H            1.01286674340220       -2.09449920902070       -0.44125917438350
H           -1.05034283513792        2.98157962335702        0.20813714606343
H           -4.39367459144050       -0.95625001884392        0.21814549514963
H           -2.63239043318455       -4.31498274576812       -0.40901531354056
H           -4.21244965287989       -3.64294503487690       -0.23804251490851
H            2.06637961026475        3.76577606937814       -0.96906844401601
H            0.34552713173537        3.58726256090594       -1.15194384800784
H            4.92411373032954       -0.26973455710819        0.89641207765791
H            4.78904737499769        1.46617364323748        0.97102303022663
