23
 energy: -43.281358351597 gnorm: 0.000369009986 xtb: 6.6.1 (8d0f1dd)
N            3.48105189774411       -1.33907686635929        1.06191715090986
C            2.67480753647366       -0.61061025067385        0.27024310447239
N            3.25887242070701        0.38745793728262       -0.41149256343977
C            2.54565809140591        1.36471792913342       -0.91219114502728
N            1.34944524621744        1.79214876411884       -0.58656932650607
C            0.33877224876265        1.12140872776224       -0.08178190737525
N           -0.72805596191303        1.78008549529516        0.32855313991750
C           -1.91404862524551        1.16784018821126        0.34907379918018
N           -2.93999075227502        1.87220632482324        0.84495264200128
C           -2.07043838776805       -0.14263890423612       -0.15632749773424
C           -3.14090056668621       -1.01612204090509       -0.34657440553561
N           -2.72228205747948       -2.24303183661446       -0.70273132335226
C           -1.39427949368311       -2.22053175823203       -0.72675286132055
C           -0.89495819598669       -0.94173662772481       -0.40821209806946
C            0.35905193091674       -0.38048020786568       -0.17052195802545
N            1.44052180988218       -1.06407922717989        0.10629348505784
H            3.14447010040256       -2.21045976693482        1.43203054314108
H            4.46592283822299       -1.14092942153489        1.05029592574589
H            3.06979270014454        1.99799957548266       -1.62254616265450
H           -2.76656008482711        2.81228917025608        1.15733216055017
H           -3.87802293044235        1.51906197827162        0.79020911755201
H           -4.19322705486361       -0.81710136189048       -0.24661247792993
H           -0.82837965621029       -3.09648997968557       -0.98246827535822
