27
 energy: -42.157386187628 gnorm: 0.000745103338 xtb: 6.6.1 (8d0f1dd)
N            3.49775160355537       -1.84077658267475       -0.06802839216878
C            2.72110253037069       -0.71756964648601       -0.02378618699822
C            3.38555096075915        0.52171456950467        0.07014794332615
C            2.79187782424839        1.76653633121275        0.10589410941418
C            1.44766611563194        2.09086202393252        0.05803055413094
C            0.31251082920125        1.26518012886112        0.00720402310929
C           -0.93188248552447        1.89151344053982       -0.03384793361109
C           -2.15335015578583        1.21577002114557       -0.03084955259638
N           -3.32257214105173        1.90726173273238       -0.03085949921826
C           -2.13194487917107       -0.18545150251662        0.02177292365349
C           -3.14097433272692       -1.15291002758156        0.04033822537195
C           -2.53235526523276       -2.41214481074705        0.07928692033264
C           -1.15758748495464       -2.25619441006365        0.08065767333160
C           -0.86896221033853       -0.87358513552305        0.04586330198800
C            0.36399038176939       -0.21177998105704        0.01841060465885
N            1.43215544726181       -0.99256668875307       -0.02245666554836
H            3.01965750664471       -2.70593978950202       -0.25042716994994
H            4.47551693874180       -1.77630047279031       -0.28576390308273
H            4.46662969244356        0.48222558744923        0.10719399942800
H            3.47201527821519        2.60844994929504        0.16807395553419
H            1.23061748321347        3.15344370397668        0.07870940640519
H           -0.95542251332051        2.97408643634813       -0.05998685398240
H           -3.31587955305958        2.89356257901645       -0.22235074072109
H           -4.18099739785592        1.40577440907015       -0.16889376633767
H           -4.20268758320102       -0.97552713942559        0.02932490350068
H           -3.05789047783443       -3.35068390281304        0.10359633597975
H           -0.42279921339925       -3.03784872265071        0.10716113735003
