22
 energy: -39.541896205473 gnorm: 0.000633724450 xtb: 6.6.1 (8d0f1dd)
N            2.52246555557034        2.33181310928827       -0.40062521288550
C            1.53642141596053        1.44188654325036       -0.19742451315889
C            0.19306981382016        1.84987771736569       -0.21717513173240
C           -0.82772869726811        0.94938034056070        0.02378711316408
N           -1.99855759751056        1.33192226291264        0.50957392433115
C           -3.10444385523854        0.65827052075530        0.65142007198128
N           -3.56263893215734       -0.36059306123722       -0.06220396420654
C           -2.73011218662576       -1.12494341408590       -0.73740640257937
N           -1.45270984035998       -1.32784570771963       -0.52737900919817
C           -0.54354722788278       -0.52413676855322       -0.03885462914523
C            0.77516964879006       -0.89089668760178        0.21406137438830
C            1.44833188241115       -2.11081436890515        0.43551851198134
N            2.76403285417882       -1.94030347450070        0.46848142136913
C            3.00636282131489       -0.63530164262710        0.25406552365631
C            1.82493294274233        0.09291788866073        0.10531269772560
H            3.48102543151016        2.05547786224687       -0.28562200126157
H            2.30899884518999        3.30155923419669       -0.55654712021428
H           -0.04550470515350        2.89834918721492       -0.31400237083125
H           -3.80999941164190        1.08338294380637        1.36038162057176
H           -3.18199176348126       -1.78727428477703       -1.46953937757201
H            1.00967750716018       -3.07910212718495        0.58642359389339
H            4.02208185477090       -0.28341904256634        0.21140700222280
