26
 energy: -43.225203258375 gnorm: 0.000571289640 xtb: 6.6.1 (8d0f1dd)
N            5.49850379661574        0.48986448549618        0.08955919056737
C            4.38832028023035        0.20011217953309        0.06101535225626
C            3.02263005094311       -0.16092750375893        0.02800648614534
C            2.72643286165847       -1.52248443927857        0.20389338223480
N            1.60127538284639       -2.13721958783931       -0.05441485235045
C            0.41478804357656       -1.63903743412440       -0.28664630306129
C           -0.11901010380408       -0.35215877729787       -0.07421148432278
C            0.70482917307998        0.86414582052997       -0.05385856721495
C            0.05675041027606        2.11371464608721       -0.05588570899435
C           -1.31184098729613        2.25777146257739        0.00930351699900
C           -2.12117729674191        1.12945412194726        0.03429531194546
C           -3.49794658192688        0.95744869326620        0.07659035505261
C           -3.76225392187080       -0.42857338042072        0.07533488484982
N           -5.00458319542776       -0.99049780781665        0.06149029114009
C           -2.54942369362010       -1.13015194337531        0.02013212834562
C           -1.50537834960582       -0.19874139565137       -0.01657483851579
C            2.09840562147480        0.88016967352671       -0.10701282749630
H            3.53377276781136       -2.17958903342615        0.51278498705723
H           -0.29301164580273       -2.39051562613121       -0.62458817612094
H            0.67575696428061        2.99928190375980       -0.08682859359689
H           -1.75241311654910        3.24407109383413        0.04001370617975
H           -4.23906384763217        1.73449425982877        0.10142052304835
H           -5.07963421248323       -1.96990852078498        0.27713273769122
H           -5.78322770997072       -0.41423909496166        0.33149398325658
H           -2.46257093537053       -2.20059156529047        0.03210868023773
H            2.54443362990828        1.86709026257059       -0.18236450583321
