27
 energy: -46.974126000428 gnorm: 0.000398346031 xtb: 6.6.1 (8d0f1dd)
N            3.36245242195494       -3.05597473058844       -0.00034740780235
C            2.82617748438201       -2.03931343754076        0.00005269104509
C            2.20411395827210       -0.77124774874822       -0.00022643821369
C            0.81678134183337       -0.78401260891379       -0.00303935114764
C           -0.12535744631412        0.24021694749606       -0.00487015044020
C            0.13181119583564        1.67548518360436       -0.00174134136237
C            1.40968171710232        2.24494072997389        0.00109445521025
C            2.67300751772618        1.69444402516610        0.00196856316783
C            3.07805947481768        0.35324756301860        0.00158899895753
N            4.40566533433760        0.10528847977679        0.00284492569814
C           -0.96117362832996        2.56460338222080       -0.00209412027869
C           -2.28166951324763        2.16927737307355       -0.00590890849491
C           -2.56500462426659        0.80971641798872       -0.00970744914117
N           -3.72099695950524        0.13670723666866       -0.01945513572062
C           -3.33128420780260       -1.15454851884164       -0.02244037395247
N           -4.22228704825422       -2.16256552185677        0.01346162675504
N           -2.00087054025225       -1.38407800839761       -0.01976407244530
C           -1.47326001599712       -0.15263049195927       -0.00962193608672
H            0.36233434083969       -1.76988642583573       -0.00406664073792
H            1.40549243422696        3.32988753335314        0.00276447221211
H            3.49197353377305        2.40498584621554        0.00373546072321
H            4.74671411335073       -0.84144687397796        0.00435136086374
H            5.06558088837907        0.86237170570885        0.00574587858001
H           -0.74178866058967        3.62369189632361        0.00072485842870
H           -3.07987420345113        2.89559080504897       -0.00629819601452
H           -3.88643197749150       -3.09006450189650       -0.17467151052862
H           -5.18369541642689       -1.93737364178375       -0.16949210347559
