30
 energy: -55.714887102414 gnorm: 0.000883905905 xtb: 6.6.1 (8d0f1dd)
N            4.16707884305692        0.36086426971346        1.38216579415941
C            3.15421248782981        0.61128527540024        0.90348327685534
C            1.87817616430208        1.00584119247181        0.43920964891722
C            1.58874667610657        2.34404715359402        0.66829876750283
N            0.58550959811069        3.07126734233139        0.23216966404945
C           -0.54069708222856        2.63957397438332       -0.30082779497621
N           -1.26211700714173        3.59871185979744       -0.91502000241534
C           -1.11358295394741        1.33117437693958       -0.18261955528159
C           -2.46410847844058        1.27122082034587       -0.54676444781941
N           -3.57342076309007        1.27805765662793       -0.86219589658998
C           -0.44745520054834        0.10554751909861        0.05981205647448
C            1.00090052596057       -0.02078288275689       -0.03956040080529
C            1.54068055739577       -1.24198568376851       -0.45903282547345
C            2.89137423142683       -1.34614476619526       -0.85605569666742
N            3.94430564436879       -1.49284172413885       -1.28855510886927
C            0.75488164529635       -2.40832974346649       -0.56850195767716
C           -0.54570037275795       -2.35582032493842       -0.15806067199690
C           -1.52739403554267       -3.38428838587527       -0.01296191145512
C           -2.66121345649462       -2.82518637322214        0.49491166133219
C           -2.46679167905039       -1.41812820802260        0.66918351127292
N           -3.35252786246043       -0.65521222371127        1.32869187986128
C           -1.15707959520516       -1.09933307877121        0.22010212025739
H            2.33987277456306        2.92383687173733        1.19610143769674
H           -0.87622498276142        4.52614049287158       -0.94643322262012
H           -2.16776335825852        3.41206364220228       -1.30838473284695
H            1.21286580358963       -3.32627048124133       -0.90501085239854
H           -1.36960493527930       -4.41779618450250       -0.25705434965472
H           -3.56936909681889       -3.33606843459558        0.75688309766701
H           -4.26185420474841       -1.04012540723521        1.52098048963047
H           -3.25462016523238        0.34341111092804        1.37852294947187
