33
 energy: -58.883157717089 gnorm: 0.000675727568 xtb: 6.6.1 (8d0f1dd)
N            5.15633199748983        0.18295171081903       -0.72347087428654
C            4.13412413505992       -0.24563766635802       -0.42247873314074
C            2.88302284977571       -0.79957472740380       -0.06865056805025
C            2.95413217253134       -1.97822914671564        0.69090879122554
C            1.94301392035901       -2.86449727578202        0.95573387717799
C            0.61000386981018       -2.78917699733989        0.54228513206798
C           -0.12241615988093       -1.72648138979291        0.04710534022114
C           -1.52865930605274       -1.96279062354931       -0.18655134820652
N           -1.98810979657372       -3.25106465227891       -0.31751386429291
C           -2.43091989098507       -0.90851108749518       -0.16050416582235
C           -3.80495085544279       -1.14609475057460       -0.34009195094868
N           -4.92239030003653       -1.35888122047846       -0.50538036097632
C           -1.96779816123116        0.41190916995498        0.04735436054944
C           -2.64324650025407        1.60342583925660        0.18938971322277
C           -1.68468939372223        2.64131791718809        0.29068973045103
N           -1.96341730854861        3.96055120618878        0.42804992025817
C           -0.39543598172616        2.09178995454278        0.15960021078623
C            0.76937344649320        2.83122948926235        0.30993286535783
N            1.71745991250536        3.47737318398564        0.43150079366216
C           -0.53792930886231        0.67190247854245        0.00979796199520
C            0.37302610050250       -0.36251273086286       -0.10221691866603
C            1.74238305913351       -0.09081231166136       -0.48396862263703
N            1.92750411425863        0.93188738538577       -1.33489063064173
H            3.94699372211081       -2.24287425937583        1.03373799311140
H            2.21380961895119       -3.75713756506159        1.50311444826416
H            0.03830615605799       -3.68718302756307        0.74012971576381
H           -1.39142929704656       -3.92733563767483       -0.76273999997070
H           -2.97119715057837       -3.34506514497194       -0.52185572956509
H           -3.70805118611728        1.73443106647667        0.23032493336874
H           -1.20834529883267        4.58545657604991        0.65690261307309
H           -2.88880788672624        4.22913720591683        0.71388356560992
H            2.85971549601738        1.26538635672468       -1.52569876488794
H            1.15501072666120        1.52619365914540       -1.58560363507306
