26
 energy: -47.242572338165 gnorm: 0.000735445337 xtb: 6.6.1 (8d0f1dd)
N           -2.42665905502406        3.73968204979764       -0.53109677178715
C           -1.80264470272646        2.78489563128989       -0.39449992836946
C           -1.03193896802039        1.62048010834454       -0.21907799401445
C            0.35878887990230        1.71452003598865       -0.13599653736929
C            1.18383063930442        0.59874082854936       -0.02788994159047
C            2.59404823350634        0.76870651851946        0.19269616023464
N            3.03868014916089        1.87900368498635        0.80216928186455
N            3.54731428131217       -0.02866370435211       -0.27333564472574
C            3.43450616407565       -1.28195004791943       -0.60739163176501
N            2.56563588109459       -2.17603893381075       -0.17568863104879
C            1.34297129662811       -1.91748178090565        0.20133137689394
C            0.59876340748254       -0.73107744006418        0.03598415611488
C           -0.79890250520846       -0.81659039034845        0.06140115033740
N           -1.54489113406213       -1.91893076289280        0.14875940758404
C           -2.83111831916220       -1.49889151429038        0.07183360800571
N           -3.84162006096582       -2.39084520923219        0.19193828938540
C           -2.94813855998994       -0.10394945363826       -0.07982189257590
C           -1.64557632077620        0.36853347502776       -0.09333389512105
H            0.80228519819217        2.69834972685607       -0.21210973928968
H            4.03158868928949        2.01040778430276        0.89450138612379
H            2.40576977041287        2.57665401383414        1.14857803020697
H            4.24797606095582       -1.67881090878093       -1.20715423971025
H            0.78775581038460       -2.76978305257718        0.57956770562849
H           -3.59740795903211       -3.36419778796093        0.13262625644830
H           -4.76682492180418       -2.11652722359276       -0.08701861096521
H           -3.85675779562989        0.45873549246923       -0.16177634759570
