32
 energy: -58.385798177718 gnorm: 0.000429772328 xtb: 6.6.1 (8d0f1dd)
N            4.84147393987404        1.58959572315696       -0.52810948921565
C            3.85055339113585        1.02589018092226       -0.36514089393273
C            2.65217714281693        0.33020625433317       -0.14077408699736
C            2.77872217041596       -0.95187034460976        0.48107439854347
N            3.89544063837416       -1.20508320946528        1.19181341248514
N            1.95531622644252       -1.95964091749424        0.34066573372969
C            0.72370726741421       -1.97549032629267       -0.14886729612748
N            0.25799332301460       -3.15418344786512       -0.53106898867298
C           -0.22387766451072       -0.87169636413578       -0.14390529853426
C            0.12579561583547        0.51071113008915       -0.12738779210108
C            1.45227496881752        0.96308511875312       -0.48998905996950
N            1.54537677568180        2.10361808545935       -1.19888162741461
C           -0.89103848423276        1.47955268207145        0.10252755932005
N           -0.56647738009283        2.84038291063441        0.22204630252969
C           -2.23703269978443        1.11645327533269        0.20315970607531
C           -3.20981658165632        2.09383464381289        0.47903990800940
N           -3.98709709747860        2.90554565813320        0.72167829074951
C           -2.61686244521309       -0.22281334919516        0.02933282298165
C           -3.81863127107158       -0.92756219905625       -0.00687651137697
C           -3.45975325762469       -2.25796857399593       -0.19719068609627
N           -2.13328036504981       -2.43755027260886       -0.28168385121360
C           -1.57889125767120       -1.21054291989306       -0.14378486512421
H            4.04669462151922       -2.14369192436711        1.51775521253946
H            4.65257362129965       -0.54373845266822        1.21110699344999
H           -0.79847675174956       -3.22144456662860       -0.57187738828101
H            0.85806431845827       -3.95445073060635       -0.40845915900138
H            2.45094939837010        2.47575043797275       -1.43312087283422
H            0.71856890363346        2.65097740168401       -1.37597703045362
H           -1.35636398821280        3.39625190015291        0.52596197664452
H            0.25620701949479        3.03357123638962        0.77685971308900
H           -4.81044492424400       -0.53177292308018        0.08830642178927
H           -4.11824468330375       -3.10392387723657       -0.28834387288953
