28
 energy: -46.696697024683 gnorm: 0.000479164449 xtb: 6.6.1 (8d0f1dd)
N            5.43876049977235       -0.61388620151931       -0.29180157819709
C            4.37371187791830       -0.17643760913239       -0.26543807927473
C            3.08630504771851        0.34945608937391       -0.22709068189242
C            2.72889515485251        1.70787663870915       -0.41048938743841
C            1.36630736146825        1.84984553943763       -0.27687223885302
C            0.80354981778541        0.57296394641428       -0.02244345048301
C            1.90200069467519       -0.37320588247543       -0.00979428653668
C            1.65727191574011       -1.72439427511470        0.22288031848130
C            0.36432296411351       -2.15287215343702        0.36841664551690
C           -0.74681262450318       -1.27692461062522        0.29069947022185
C           -2.02405101194528       -1.88417803037533        0.33696629189739
C           -3.25441614272379       -1.38390114614157        0.01172885650353
C           -3.53680812990815       -0.03897024293710       -0.32725029016684
N           -4.71084388393021        0.24662382134392       -0.93372242433517
N           -2.82009180850950        1.00879835579473        0.02674983097551
C           -1.57057835734917        1.08233827895358        0.41576582912355
N           -1.24289220042721        2.21502772926488        1.05673126798172
C           -0.50492469595890        0.12881603966674        0.17419021782617
H            3.42901833564196        2.49725014256476       -0.62084858366644
H            0.82797512510796        2.76939914103927       -0.42546129093396
H            2.48072819611470       -2.42251896509533        0.27018993766430
H            0.16617934485952       -3.20449359730359        0.51728125104698
H           -2.00044214985433       -2.94656717565978        0.55193350370196
H           -4.08760042206118       -2.07279767353540       -0.03059262105878
H           -4.90306102012854        1.19868495328159       -1.18888753167308
H           -5.31476983069560       -0.48569203531427       -1.25753647333495
H           -0.29872814026597        2.36254700515701        1.36898573473130
H           -1.95763487470675        2.89681489056516        1.24168355197198
