30
 energy: -54.930513040685 gnorm: 0.000786159905 xtb: 6.6.1 (8d0f1dd)
N           -5.48758721905883        1.72300988010173        0.24185119603215
C           -4.41832312396791        1.30580493560831        0.16431076705467
C           -3.13937710867609        0.75211014707406        0.08453857020440
C           -1.92645680964993        1.44640587821281        0.04163766519583
C           -0.88096737773079        0.51265891793289        0.00296299910325
C           -1.48120903038273       -0.80313250874618       -0.00263243391287
C           -0.63909031512363       -1.90852472068678       -0.13752549212636
N           -1.07670615957046       -3.18140394635535       -0.27777223899900
N            0.68869990679529       -1.76602209632861       -0.09517400395169
C            1.27226359097104       -0.58270373737074       -0.00835191618368
C            2.68743888803626       -0.65739877724676        0.10559934744276
C            3.20839032650942       -1.97100180885374        0.18179827543458
N            3.67654567010509       -3.01713563056507        0.24532384893513
C            3.64199790556539        0.36098282187736        0.16187032278554
N            3.54631990965291        1.65915522309245        0.06362031045045
C            2.41495674838562        2.36436281639210       -0.07415612008639
N            2.65625637123719        3.68928223579860       -0.21074780798332
C            1.07891720213713        1.94517744730214       -0.06840391725423
C            0.51938676497888        0.66948259537983       -0.02457233702307
C           -2.87759665744876       -0.64469854999059        0.07223211039620
N           -3.83159244391952       -1.62540210359781        0.09033398329126
H           -1.84401801476103        2.51732718403132        0.05140303017419
H           -0.35887634009178       -3.86189208006354       -0.47298723120305
H           -1.99753761831166       -3.34837471393950       -0.64524885238157
H            4.66940918103217        0.02749446633314        0.29099157435273
H            1.91325807858938        4.36000975447610       -0.27718041198907
H            3.61184879152710        3.99756162074280       -0.17395837590873
H            0.36084830555891        2.75454625509747       -0.11468079560888
H           -4.76785721854071       -1.30667052351921        0.29389208709823
H           -3.58172779234830       -2.49818592978921        0.52873043816079
