31
 energy: -54.647653689067 gnorm: 0.000615994484 xtb: 6.6.1 (8d0f1dd)
N            5.39534979771416        0.75388223943850       -0.76246294664802
C            4.33592751688945        0.36328353481697       -0.54023247340120
C            3.04039495889164       -0.08060760703558       -0.27458814504301
C            2.65898697238605       -1.39389371776992        0.03656130358030
C            1.27751671973569       -1.41259916644112        0.18351489954144
C            0.36680325042346       -2.44810260771164        0.44855760864148
N            0.76358947218232       -3.69109919740299        0.79006269365546
N           -0.94151598260946       -2.25304210403465        0.33428062063664
C           -1.44815736389022       -1.03984735838961        0.09540029198749
C           -2.81302344583877       -1.08334670725595       -0.21214727423116
C           -3.74932397750601       -0.09618833877320       -0.50136748702693
N           -4.96132175134245       -0.50761680711326       -0.96455801313793
C           -3.58148390076818        1.28880189669535       -0.30957176451451
C           -2.46542281951415        1.92839901950110        0.16331722291170
C           -1.16946692130438        1.44611667883421        0.37618952620439
C           -0.33140916118659        2.39767961881162        0.98145408923834
N            0.30907192810351        3.19693456928228        1.50891397159340
C           -0.61260064234322        0.15962964509762        0.12400454726983
C            0.76243572061376       -0.06706379420806        0.01183892346632
C            1.89559697484970        0.75481865850633       -0.29083302759399
N            1.94927306800165        2.03406880684231       -0.73921732266265
H            3.33461960109120       -2.22578155585516        0.12048116285484
H            1.73528506916297       -3.93812378083389        0.76956337231109
H            0.06514957632777       -4.40839321802194        0.86774767996403
H           -3.17460006573761       -2.10248216889412       -0.28601907273533
H           -5.71547701216535        0.14902897551096       -1.05184026197289
H           -5.17932319408250       -1.48739312395008       -0.98769445729215
H           -4.45444286732437        1.90229972416445       -0.49274084750144
H           -2.58626651801577        2.98420104847464        0.38271824791698
H            2.87913260495994        2.41009444957301       -0.85154971969002
H            1.24734143089545        2.69881333194143       -0.45911632802285
