32
 energy: -54.362983375645 gnorm: 0.000838596214 xtb: 6.6.1 (8d0f1dd)
N           -5.29060657785416        0.38790868452708       -0.32342700221890
C           -4.17640034009633        0.66609668626217       -0.24852126557823
C           -2.84173525808834        1.05513940541931       -0.15394598307729
C           -2.36832940692185        2.38221793107762       -0.25138968572576
C           -0.99708493555162        2.39911546370211       -0.10565006536213
C           -0.54179239533116        1.07127428896016        0.07891869923685
C           -1.72141306532868        0.22927759763361        0.02017711028856
C           -1.56784012176188       -1.15864044208188        0.08791160193733
C           -2.66508679128027       -2.04602111787726        0.03665491397741
N           -3.50796059479875       -2.82387951382265        0.01302827084244
C           -0.29522181175893       -1.69449004842555        0.17331080494695
C            0.87166305600285       -0.90365451962360        0.23378177138864
C            2.12477038128968       -1.61556175059952        0.26123525532554
N            2.10213533783861       -2.91138466032404        0.66955350683076
C            3.32959824870443       -1.16701731130888       -0.26083800542933
C            3.75629420060181        0.13539787157138       -0.51746112639910
N            4.99135689838517        0.29143274542789       -1.07624664481408
C            3.12622703473620        1.28661960095696       -0.03019897035215
C            1.84745369112080        1.42229268775863        0.47121586528153
N            1.56353194069276        2.54371256124960        1.16572857235634
C            0.73917507883667        0.51403086401928        0.23969408531616
H           -2.99493781190057        3.24032003014999       -0.41899949445726
H           -0.39330055415135        3.28330147321564       -0.20869252073185
H           -0.21480302908883       -2.76951615089469        0.11858281262884
H            1.32089549582647       -3.27016652318155        1.18646093558905
H            2.96009042025922       -3.43268714300169        0.69313632918165
H            4.07405601570456       -1.93626619035225       -0.43502309448604
H            5.41890106306190       -0.49249418552162       -1.53678320646746
H            5.27462523849303        1.20660484367732       -1.37877898943777
H            3.74368205384589        2.17727227938489       -0.00136698585588
H            0.63022902885905        2.69543392841140        1.50757007576269
H            2.25956281745399        3.25514757561037        1.29429872800232
