31
 energy: -58.663538536096 gnorm: 0.000589655646 xtb: 6.6.1 (8d0f1dd)
N            5.30128382076274       -1.10325773023684        0.97225903637232
C            4.27954941502430       -0.65165966377825        0.69369766715602
C            3.04781440114547       -0.09905131503109        0.35212160938719
C            2.85065551382459        1.18827625367906       -0.18196051509874
N            3.81472954512153        2.07555143372044       -0.47729514300053
C            1.45035640601525        1.37183278616511       -0.34870721775149
C            0.70823271782879        2.41414778790739       -0.86237706040708
N           -0.60661639875754        2.44706293886683       -0.75973365595287
C           -1.25877925507262        1.41425193269904       -0.23450452801894
N           -2.46163654979184        1.68574395737331        0.22937241304521
C           -3.42546479933413        0.87137322032937        0.59403231350814
N           -4.33044207355582        1.37563861521451        1.46015230746780
N           -3.70846846875417       -0.34368332732516        0.11940642549808
C           -2.81009262461909       -1.17659028619586       -0.36347601077746
N           -3.32980874761882       -2.28978514576487       -0.92320124931331
C           -1.38177029695471       -1.08584466321599       -0.26629173809677
C           -0.71069450975252       -2.27326889531187       -0.55724874761323
N           -0.19072906941790       -3.28038257007663       -0.78428311333795
C           -0.61498549490534        0.09249463942844       -0.08443233097617
C            0.77606081623003        0.15242717053886        0.05173961970922
C            1.79137124304547       -0.74936264910385        0.49658942522966
N            1.66931066450805       -1.93615625830632        1.11845472688246
H            3.57818021763552        2.98634799364485       -0.82534962200110
H            4.77732330025287        1.84810922384345       -0.29946407939436
H            1.16157052386346        3.28373529087487       -1.32288008582156
H           -5.19570423760293        0.88159588743949        1.58671185409648
H           -4.27867111236793        2.35573952232619        1.67427742455096
H           -4.32871082912618       -2.38992103535882       -0.92771771425562
H           -2.74299917469009       -3.04051016939922       -1.24187013891741
H            2.52549028475404       -2.43709305288146        1.30243887832071
H            0.84457650970969       -2.49914386936572        0.98446675890987
