28
 energy: -50.673970492753 gnorm: 0.000691797623 xtb: 6.6.1 (8d0f1dd)
N            4.56643127452946       -1.69122424908937       -0.11999831276848
C            3.63161937706374       -1.02298485494429       -0.12277165754796
C            2.47580032121534       -0.21726391971090       -0.10784568613031
C            2.59736520754315        1.08665236411813       -0.59927785720156
N            1.82538396655566        2.09361725370334       -0.32367113592887
C            0.61404501018612        2.10789973096003        0.20946653219757
N            0.29529330918721        3.22542468337325        0.87563499845322
C           -0.38066113119304        1.09139611302028        0.01432253681120
C           -1.74690631654036        1.45650994174998       -0.13526536399444
N           -2.12326259594680        2.80705505843979       -0.22082453418890
N           -2.74888438393659        0.60769854957214       -0.16632451233015
C           -2.48181791204629       -0.68410838568208       -0.11575028342697
N           -3.37573047433111       -1.66752676709861       -0.16267708169742
C           -2.66100644820382       -2.80153698502996       -0.16269280370563
C           -1.28714721849480       -2.60386423582662       -0.06283223777410
C           -1.10715054053702       -1.21173846202629       -0.02371874730589
C           -0.04798737413937       -0.30461690554758        0.08727245354341
C            1.27695734860828       -0.80422640483339        0.36655167810354
N            1.36861218546095       -1.97922782451136        0.99943060733485
H            3.48952601475039        1.33951852333220       -1.16240939325140
H           -0.66555652281996        3.38349437662508        1.14148185781901
H            0.97623054057850        3.96340519106949        0.93581493137607
H           -1.61638162721505        3.33431729360202       -0.92108564000643
H           -3.12235200669050        2.85153642266718       -0.38625503758899
H           -3.16717422307741       -3.74921203267754       -0.22518821360714
H           -0.55083933143621       -3.38613484267217       -0.11092744495891
H            2.26319782315972       -2.42505128745133        1.12476681127561
H            0.52737728587024       -2.44584694133116        1.30007333640009
