28
 energy: -50.676520725950 gnorm: 0.000830931967 xtb: 6.6.1 (8d0f1dd)
N           -3.18200870199818        2.81816138040393        0.17903758178009
C           -2.72190229948317        1.76198987880917        0.11971143314189
C           -2.23504798505504        0.46599409886959        0.06049746419784
C           -3.06667624146674       -0.70659658564414        0.04328674002045
N           -4.40885141632628       -0.69982680897335        0.07942389458241
N           -2.36897711553325       -1.84210511439564       -0.02294962032706
C           -1.08102899444481       -1.47702051812597       -0.06342782959838
N           -0.05331990683784       -2.28560310805917       -0.19457650857707
C            1.16857534690013       -1.77327617797656       -0.16110620874389
N            2.17229447270052       -2.75051300323340       -0.29818444119732
C            1.48084432850719       -0.40262851855854       -0.00049044679552
C            2.82272156850684        0.01145523123920        0.29638735940747
N            3.65935919518123       -0.89315421244688        0.82921345632030
C            3.38649979055754        1.26545621787659       -0.01529608853028
C            2.72300591343378        2.39726189295737       -0.43956313861209
N            1.46199796038002        2.71255077698362       -0.23646861299191
C            0.47996403143905        1.93256036066303        0.11068239251018
C            0.36106154475432        0.53080821720531        0.01203420875036
C           -0.92254308454193       -0.02537760391883        0.01093160973308
H           -4.89352941533436       -1.57765197658261        0.11921312921510
H           -4.90894355226609        0.16427824660045        0.18471596737861
H            1.72257921852292       -3.64363250778744       -0.46635578591059
H            2.85005309423311       -2.54521495576377       -1.02191874912705
H            4.60972649275318       -0.64071545430315        1.03820111170804
H            3.33802097226849       -1.83972081167651        0.98085573701630
H            4.46745129381846        1.31697308034260        0.04033323511639
H            3.30722975209167        3.20043036342074       -0.87787854520427
H           -0.41786339556199        2.46901834917351        0.40404031203645
