24
 energy: -43.001114480710 gnorm: 0.000517175555 xtb: 6.6.1 (8d0f1dd)
N            4.00136856117125        0.94480697415468        0.67879411694227
C            2.93889901730930        0.35377596459432        0.09933795447694
N            3.20004713547243       -0.83732239840254       -0.46424466890599
C            2.29431039859254       -1.76123576483455       -0.65590296017406
C            0.94697353695470       -1.78830345619090       -0.29825588637294
C            0.12385380201354       -0.70221698012502       -0.00732960479032
C            0.58642208554347        0.70563311991988       -0.11740860977579
N            1.83983594975925        1.07500528298533        0.05342679867656
N           -0.25883519674291        1.70694768214285       -0.31751286098676
C           -1.57661651834917        1.53258892116820       -0.23625244219022
N           -2.33333273453562        2.60968385650717       -0.49492887927019
C           -2.13172279773044        0.28846117365299        0.12406802327627
C           -3.40881660107694       -0.22271933027071        0.34868310690664
N           -3.37323246594828       -1.54711595257963        0.58277826037605
C           -2.10602511327068       -1.93387132255608        0.49611266249712
C           -1.24963849330163       -0.84627733155594        0.21722438573921
H            3.91734728127347        1.90008043780956        0.97697597631563
H            4.90381330783194        0.51339340501563        0.58961800766781
H            2.69618077950188       -2.66064076625262       -1.11515203449484
H            0.45195948494746       -2.74873652272027       -0.37059618900085
H           -1.87156063298984        3.47356387434129       -0.72128112570857
H           -3.33068526133010        2.57578956108948       -0.38954519569627
H           -4.34975224751736        0.29813478012871        0.35441016793094
H           -1.83862967297825       -2.96211591822175        0.65794161686133
