29
 energy: -50.392737663831 gnorm: 0.000750512967 xtb: 6.6.1 (8d0f1dd)
N            5.39145336329692       -0.29868721343340        0.77289043337064
C            4.30169679461834       -0.01395548609599        0.54864690392677
C            2.96583755348226        0.33087433656744        0.25364060510295
C            2.62569275760248        1.68164439559242        0.33902754130419
N            1.54729069728330        2.26883553045686       -0.10595075111926
C            0.39889247750453        1.73483170714810       -0.47793406328602
N           -0.39328587471753        2.56280986231454       -1.17835780409002
C           -0.13277819801170        0.43359632428111       -0.15386899393966
C            0.72161433649699       -0.75104778276063       -0.19460163227822
C            2.09580996895633       -0.73372134827819       -0.05240726903022
C            0.08383333569422       -2.03893429138493       -0.33900185658921
N            0.85418743456445       -3.16783709264044       -0.55590005185456
C           -1.27289869980293       -2.18697365894414       -0.14756453695192
C           -2.07210218568622       -1.07643539085863        0.10843654416324
N           -3.37909021397405       -1.03365226262063        0.30861137417186
C           -3.69012401676078        0.29152588615336        0.42526802085513
N           -4.98922024959192        0.65517648909724        0.61223206646263
C           -2.59219381206209        1.12769543208651        0.24781924517962
C           -1.49190621891304        0.27013421200756        0.05273526543416
H            3.36437783247257        2.36517713415962        0.74600929805543
H           -0.06009199585690        3.48706253596846       -1.39084466687257
H           -1.31082569236381        2.26605558492522       -1.46208425700733
H            2.58722905111360       -1.69926557243352       -0.04781621889190
H            0.32006797353550       -4.01026225765934       -0.69961131834868
H            1.64587160306400       -3.08283000905701       -1.17215293272257
H           -1.72681256839367       -3.16544204716369       -0.20146465536922
H           -5.59940251389938       -0.08635462555798        0.91426348786330
H           -5.16829561693972        1.56882559780991        0.99317591186011
H           -2.60007437771237        2.19696997732077        0.34243680290153
