32
 energy: -53.559099550593 gnorm: 0.000728748518 xtb: 6.6.1 (8d0f1dd)
N           -4.61997405617924       -2.34775598882034        0.28823829664474
C           -3.68571918817247       -1.67587252044009        0.22288317824908
C           -2.56034258238712       -0.86360137728050        0.14265264639298
C           -2.56769883959452        0.53077439522890       -0.10177767992025
N           -3.70306590676683        1.29152665270197       -0.29290077166753
C           -1.23667485462323        0.97901914653714       -0.06125437949702
C           -0.67354821746224        2.25640407409545       -0.13927142159978
N           -1.44842338939676        3.37631500084373       -0.30368846372138
C            0.71141645530278        2.36910756310631       -0.02287377275254
C            1.56787125808259        1.28453431825945        0.14950922247277
N            2.82476570976658        1.61181121734153        0.46893732152467
C            3.89607474271299        0.87082395885706        0.54043597114499
C            4.14436599614850       -0.42547786237928        0.11394116142088
C            3.18032695603115       -1.36681252838071       -0.27102197261175
N            3.63384028949918       -2.60856259573531       -0.63261812820947
C            1.79378540709830       -1.20535922990132       -0.19890117005693
C            1.02106151580833       -0.07270109871064        0.07424218068656
C           -0.37832015436552       -0.17276897429239        0.12324850665663
C           -1.22211796559083       -1.29571562779118        0.28731121331940
N           -0.85692804150349       -2.59687904976292        0.53492591763978
H           -4.54336559730417        0.74076474249262       -0.40598265592072
H           -3.61761571939821        2.02569967510729       -0.98072931277369
H           -2.38671618255770        3.32485599700551        0.06036572293977
H           -0.98056134752831        4.25517027695191       -0.14278662632313
H            1.16147200042538        3.35073209578504       -0.00470574770606
H            4.75016359549518        1.41421375102871        0.94090953857943
H            5.17544943810044       -0.75486622772781        0.10836591714803
H            4.60379355770817       -2.70986678123910       -0.87615477726067
H            2.99087416160190       -3.24615737417491       -1.06959049434285
H            1.22774155142725       -2.08045883530367       -0.49309762017024
H           -1.61777452545175       -3.19228100528593        0.83074033981831
H           -0.00594591162589       -2.71870358351593        1.06424740199523
