30
 energy: -50.122713305789 gnorm: 0.000424071230 xtb: 6.6.1 (8d0f1dd)
N            5.01935714712692        0.79600940179498       -0.27639035751089
C            3.89814030506288        0.54500192717700       -0.17146492691553
C            2.54119205653006        0.22545829357075       -0.05946366019770
C            1.59847457000421        1.23986997645063       -0.31203593317841
N            2.08633624285685        2.47832508201356       -0.61352525305369
C            0.20754273720494        1.13437331792884       -0.18687678579304
C           -0.61865500188261        0.02510722784886       -0.01366304457721
C           -0.13958783486755       -1.35801480499026       -0.08510074396417
C           -1.04688385733127       -2.37675087781216       -0.38297853384277
C           -2.41238468128439       -2.15914700846136       -0.47605811581997
C           -2.91223617987329       -0.90036415088976       -0.21545588297111
C           -4.23715279594239       -0.39592491999160       -0.15399734208598
C           -4.17948680678336        0.93363519768038        0.19203333257751
C           -2.82553783583502        1.31582116096737        0.34492493536681
N           -2.41534525115345        2.56838480512336        0.72270771861410
C           -2.01419569586941        0.18859463100984        0.06417906220824
N            1.10446588467101       -1.76378703331958        0.17765608865984
C            2.22498491038734       -1.11771431966524        0.32978091547969
N            3.23313928398046       -1.85325944774641        0.86996755497027
H            1.45782765114309        3.18557569659993       -0.95033052165829
H            3.06478480698476        2.57990796471723       -0.82401383333317
H           -0.31434351313502        2.06592582584139       -0.36882184259314
H           -0.64302351720396       -3.37018037114427       -0.50216107588291
H           -3.07781534707655       -2.98137307808822       -0.69849767836351
H           -5.12721064764977       -0.96829646493777       -0.34080303446993
H           -5.01622055926429        1.59251428167124        0.34231709686316
H           -3.13904633544717        3.15176655624674        1.11619136725341
H           -1.53063564911808        2.62036849912332        1.20597301578913
H            3.06606889579029       -2.83732691972249        0.98960518372449
H            4.18121939707493       -1.52169336949664        0.81974979880389
