26
 energy: -42.428904511546 gnorm: 0.000932658500 xtb: 6.6.1 (8d0f1dd)
N            2.64822025353904       -2.06764187072248        0.70302444025153
C            2.11031437253836       -0.97851610372135        0.11464524396895
N            2.99212213921704       -0.17757012320499       -0.45516796029852
C            2.87271662354957        1.09675788376209       -0.72588734321775
C            1.93010629082911        1.98272278228467       -0.22940674605881
C            0.67220433118470        1.65376730928282        0.27539864692898
N           -0.03588905439539        2.62189500595771        0.88511223063866
C           -0.00327490908068        0.39118888557293        0.05968842210852
C            0.68381512410925       -0.86392235816622        0.03062187008152
C           -0.08049630721979       -2.05110277381296       -0.04420993605709
N           -1.38636705361344       -2.11698092663525       -0.08638429195275
C           -2.05716383936470       -0.97397575419813       -0.08492694170246
C           -3.43375762163630       -0.76547136008163       -0.15282953302320
C           -3.64466769604455        0.60849791192928       -0.20747173234999
C           -2.43053101134778        1.29054394385534       -0.12828225235815
C           -1.39910469679507        0.34401371310815       -0.03893347967032
H            3.64033063706746       -2.20900743034452        0.62074218876560
H            2.06572521179235       -2.80397499931277        1.05939068427175
H            3.70177394975734        1.49902342569563       -1.29865988199703
H            2.17706718395484        3.03692048074256       -0.25994639688742
H           -0.95339407289312        2.41331099531114        1.24160234012212
H            0.35630017266592        3.53766403787692        1.01382552934449
H            0.42482318262656       -3.00713998780074       -0.11930743957463
H           -4.18245452630800       -1.53258086170723       -0.19353007663611
H           -4.60613387065867        1.08578391753141       -0.29311964097362
H           -2.33689366067411        2.35896677849711       -0.22512327412444
