30
 energy: -50.928258807147 gnorm: 0.000620812598 xtb: 6.6.1 (8d0f1dd)
N            5.93534301433604       -1.03605689094895       -0.03158340365966
C            4.85762011777424       -0.63649740236983       -0.02466307619573
C            3.54059265490428       -0.16372949892491       -0.01569111658955
C            3.14906579269526        1.18005597502214       -0.00101337760075
C            1.74911095385145        1.20645382947404        0.00429555176639
C            0.85056960314504        2.25924802918737        0.01523803784100
C           -0.50931300239728        1.99203248533604        0.01709027865931
C           -1.37760883563825        3.10033298577567        0.02455121444182
N           -2.05783941744504        4.02739151100354        0.02968148537902
C           -1.04760226749724        0.66214626156744        0.01010337992460
C           -2.42943118503961        0.56761724167873        0.01487201494982
C           -3.31727809125147       -0.52243094397581        0.00819577318134
N           -4.64161072072234       -0.20501922764932        0.05316443550584
C           -2.98853427813646       -1.87341684347389       -0.00183335197719
C           -1.72226981297867       -2.45735862250469       -0.00793020502776
N           -1.67726574596806       -3.82035152207425       -0.05750868660191
C           -0.48431541123991       -1.80132780954434       -0.00922796090591
C           -0.11833824712963       -0.46153527411848       -0.00325388165230
C            1.26646253656073       -0.15762651095362       -0.00664008029554
C            2.39396049805055       -0.98257387459591       -0.01947221768308
H            3.80520393047838        2.03014198241644        0.00492728414792
H            1.19374955539975        3.28460353530485        0.02166171744688
H           -2.93858203098709        1.52636817965880        0.02671308855599
H           -5.33479693607878       -0.91858744322730       -0.08110985116897
H           -4.92805581081882        0.75126930093965       -0.05683851790060
H           -3.82513123135258       -2.56271183735368       -0.00433492126900
H           -2.51563375706651       -4.35358752164197        0.08629297631186
H           -0.80086369588498       -4.29253693027401        0.07420281156266
H            0.35699600968702       -2.48308356459742       -0.01847019107160
H            2.43240141484998       -2.05670076833615       -0.03157375617487
