26
 energy: -43.239259272078 gnorm: 0.000772475940 xtb: 6.6.1 (8d0f1dd)
N            5.58348673050597        1.07754160430906       -0.28553846606258
C            4.51322797498662        0.66471018926042       -0.21555771814475
C            3.20837590686686        0.16625898546095       -0.12664145234130
C            2.85725944166772       -1.18746120346223        0.00780412450746
C            1.46175026172145       -1.25745276792106        0.05819241610215
C            0.58951920941680       -2.33258308181824        0.18923534134223
C           -0.76688463200361       -2.10698128641320        0.18692716181219
C           -1.33334547958892       -0.82377193300919        0.06395389910084
N           -2.65462606418406       -0.83652196602717       -0.04486111583448
C           -3.54470294355345        0.13068110786656       -0.10000058683107
N           -4.80047451079826       -0.30575344716297       -0.36566425306556
C           -3.37455958810063        1.51822060112029        0.13897614109210
C           -2.17654854659178        2.17937584282950        0.24522391129264
C           -0.88587825024435        1.66736834875637        0.13806763925448
C           -0.44458190099612        0.34987413713626        0.02401419371809
C            0.93893312411547        0.08803067906897       -0.03607241114178
C            2.04108022049272        0.94752641173281       -0.15255887204065
H            3.54340120482270       -2.01198277401452        0.06382952194179
H            0.97509421263518       -3.33929990540295        0.27046226410377
H           -1.46072241491197       -2.93067245950499        0.25105089924211
H           -4.94076463582729       -1.29189783228641       -0.48973347556981
H           -5.58633979458429        0.31707541634769       -0.37666036766356
H           -4.28251714350858        2.10107479371481        0.22329281842541
H           -2.23877566922438        3.24880004335080        0.40707775155364
H           -0.09749523344510        2.40631313729180        0.19449027671059
H            2.03178011473140        2.01644894507678       -0.26332657570388
