29
 energy: -51.213957474801 gnorm: 0.000528030483 xtb: 6.6.1 (8d0f1dd)
N            4.89578126031035        1.29402888233130        0.67025902799770
C            3.93978411649454        0.69364186845465        0.45803058166972
C            2.76874318896230       -0.05680062621076        0.20429712987320
C            2.92044887564422       -1.43043003839731        0.33099291276875
C            2.01738715982882       -2.42365677951861        0.02577076631407
C            0.66048217638970       -2.31057490965286       -0.27210035951079
N            0.05658093953305       -3.44565019781331       -0.69500148647838
C           -0.17597450024013       -1.15063279522549       -0.08360075815683
C           -1.54137574228549       -1.42095895204970        0.14469817133863
C           -2.51731084044014       -0.44313497094146        0.22281950976853
C           -3.85451473567205       -0.79962241497011        0.49442613352139
N           -4.94126344924407       -1.10044592867639        0.70694311673223
C           -2.15166244931622        0.88883174250468        0.00243744696826
C           -2.82304103503830        2.11174841715878       -0.05624816332747
C           -1.83818060881457        3.05909941501368       -0.29508759279503
N           -0.61143498355956        2.52177370996177       -0.38858805858814
C           -0.75206223221434        1.19034566110239       -0.20767245911190
C            0.25924435343468        0.20966373030472       -0.17708485833675
C            1.62412056135893        0.69049765725209       -0.19479015940728
N            1.80300968066944        1.96694991846636       -0.50612301938114
H            3.91087199148139       -1.75882414445748        0.62356617158822
H            2.41039473788272       -3.43297584622674        0.01329648618703
H           -0.88277659052993       -3.43537618463776       -1.04869879299493
H            0.60621998847213       -4.27544545196786       -0.83326783319053
H           -1.85056649262979       -2.43790695365643        0.33880788410076
H           -3.87579392289026        2.28010490046839        0.05467877104145
H           -1.96334560315742        4.12057466526262       -0.41434346599175
H            2.72182819226725        2.37367843210568       -0.41452317261534
H            0.92130716880233        2.55099179471546       -0.57283601848347
