23
 energy: -44.082247762396 gnorm: 0.000759737286 xtb: 6.6.1 (8d0f1dd)
N            5.13317902666333       -0.55873952088843        0.15276123797514
C            4.04493733979286       -0.19188710579022        0.14206469473101
C            2.73362540276399        0.28544692586150        0.12662589481194
C            2.34017716221062        1.64282908530635        0.08261600953324
N            1.02479015435872        1.80790442410872        0.04742718920378
C            0.48643279429044        0.55900041425803        0.08526009889637
C            1.53340407593921       -0.44416486824347        0.12938569176721
N            1.27991113253865       -1.75385880442857        0.09057630564841
C            0.03382245414887       -2.11119164738402       -0.02395401550705
C           -1.08707337751208       -1.23186648093454       -0.06632865061083
C           -2.36626076163972       -1.76682614044006       -0.33671328574355
N           -3.52747644208967       -1.26950187776972       -0.02201558751605
C           -3.77993239656117       -0.06363469809390        0.44095603368570
N           -3.15644172234199        1.06284271951658        0.22406312500736
C           -1.87578888081869        1.20468155431532       -0.10112409801098
N           -1.45555549725722        2.41183784631097       -0.43033408141154
C           -0.84403877240651        0.17717180469286        0.02751564983951
H            2.99760507978558        2.49369049425654        0.06259528405270
H           -0.14669432239067       -3.17714604436281       -0.07013136890460
H           -2.40839168250984       -2.75534565141081       -0.78394190185279
H           -4.72009906774457        0.02922684219288        0.97803578180648
H           -2.12368556032292        3.16551226317767       -0.46576757280618
H           -0.42932815439718        2.57226007184889       -0.39745039899512
