32
 energy: -58.374357617703 gnorm: 0.000868683710 xtb: 6.6.1 (8d0f1dd)
N            1.68125473264816       -3.98864751134448       -0.49158824621445
C            1.12159898725171       -2.98908797439795       -0.38437441881124
C            0.37044676211509       -1.80916466850442       -0.25860770793336
C           -1.04132419152913       -1.90213675924257       -0.26796139953532
N           -1.64920528735374       -3.10214026902860       -0.49422902599428
C           -1.74366347940757       -0.73531138898801       -0.00214904166729
C           -3.12270908593846       -0.45506982922739        0.16581963581667
N           -4.17296341880637       -1.31328226681715        0.02044378593798
N           -3.32501052034095        0.81078316894069        0.54804045802979
C           -2.12996280769647        1.42416111939657        0.57343168969385
N           -2.06529782306043        2.66685392867388        1.08688410515473
C           -1.06868001538469        0.53067732351212        0.19056665268541
C            0.30787163662253        0.65122222342609        0.00482326168608
C            0.95573493885462        1.87412280856988       -0.34139143587560
C            0.14499935020307        2.92909403928483       -0.78104469381399
N           -0.48267421260658        3.82614186918244       -1.14388255992807
C            2.32618505282675        2.16525138780123       -0.46297823078877
C            3.41392421580490        1.40551042816162       -0.13121665900658
C            3.34202328565732        0.08339681559603        0.38273997964004
N            4.43666095715027       -0.42428100759330        0.99822299398241
N            2.34093374664158       -0.75335214517506        0.28142106195058
C            1.05864529485815       -0.60270216285929       -0.01811779646429
H           -1.04551329293567       -3.91125123855016       -0.50239330188826
H           -2.56210210933942       -3.24095205022120       -0.09347010777877
H           -5.06913605854370       -0.85197386637105        0.08295089146957
H           -4.10371505783224       -1.99365735983867       -0.72078822556285
H           -2.96751847498369        3.08547110173478        1.25415347775596
H           -1.32758860720294        3.29346071045708        0.80661686882830
H            2.53439675003093        3.16226735839324       -0.83755375390505
H            4.39623126053014        1.84734272674100       -0.22404730518951
H            5.31528360383727        0.05985250120550        0.96152773730763
H            4.42403424472785       -1.40116382401644        1.23841337161986
