33
 energy: -58.088126730267 gnorm: 0.000900782552 xtb: 6.6.1 (8d0f1dd)
N            5.66355078868264       -0.68646726457305       -0.46218473996502
C            4.55476780005450       -0.41997986147455       -0.30114563130880
C            3.20744371485927       -0.06929397745359       -0.11361645406131
C            2.34269052545275       -1.09725567232734        0.22798498699132
C            0.96096809426949       -1.10109219630391        0.36061611566583
C            0.47157153861868       -2.30332370424118        0.89406108580725
N            0.12126446408779       -3.29558252804355        1.36526680721252
C           -0.00386657040189       -0.06772238555446        0.09929080607174
C            0.33495597247357        1.33903960316420        0.17036219496081
C            1.63784449568628        1.87885941062188        0.05921498612691
C            2.87882407651723        1.32195573019647       -0.17484565522384
N            3.90923638718212        2.16842104462348       -0.45373688574345
C           -0.69695259024085        2.27361498057853        0.30077714074498
C           -2.05151036866821        1.95530861219430        0.25646183951316
N           -3.00903699312433        2.92492853954637        0.41849755280705
C           -2.37924413035334        0.62063626810033        0.02633802914123
C           -3.59895755390361       -0.06348057259477       -0.17252135137863
N           -4.86506037801826        0.43816224005366       -0.08607108146282
N           -3.39472120202757       -1.34184584047362       -0.52803432272091
C           -2.07447243711745       -1.56199034576800       -0.50453268481513
N           -1.61924242783206       -2.72782423407075       -0.99590285811974
C           -1.34536904658327       -0.37462146732221       -0.10899834700553
H            2.82033468652259       -2.05578028207715        0.41010892092259
H            1.65023873307591        2.96444786577079        0.06237894979869
H            4.84807432640202        1.81121481476323       -0.49860807128129
H            3.77833787285749        3.15982662244618       -0.36703219736528
H           -0.42946813151042        3.31563328491803        0.41322658389674
H           -2.68057437712765        3.87700752018437        0.36884169503179
H           -3.89053219964183        2.76261810257240       -0.04078826009899
H           -5.02839933595037        1.12729918316788        0.63180982699759
H           -5.57734450571988       -0.27409312299918       -0.15547363834391
H           -0.72216193467071       -3.08913892185061       -0.71837391746257
H           -2.34209677703790       -3.40373695287902       -1.18758593712614
