32
 energy: -58.393521521120 gnorm: 0.000706869192 xtb: 6.6.1 (8d0f1dd)
N            5.87659389547572        0.83972471016294       -0.39309489135795
C            4.80068376688775        0.44049912093152       -0.30503142700226
C            3.48509001715203       -0.00789705036417       -0.19689386742409
C            3.05458683456944       -1.33923908812226       -0.08729588247403
C            1.65747236431280       -1.35526511252813       -0.00442794317375
C            0.71527080104215       -2.38416318427223        0.14721650445318
N            1.07615402019567       -3.68526347869463        0.21784980404022
C           -0.63589762649820       -2.02348503051573        0.18476986900738
C           -1.11141653543499       -0.71876423983447        0.09173995616565
C           -2.51745768031551       -0.52359016294411       -0.00975232730015
C           -3.33308431458774       -1.66656981342360       -0.01953161308734
N           -4.05348461177352       -2.56669719325170       -0.01914102055440
C           -3.22284692702256        0.69907817757431       -0.18798482016249
N           -4.53566524588224        0.62941326320419       -0.50333307880202
N           -2.78983705707917        1.94065946288382       -0.04280891530027
C           -1.54015489316325        2.32425814915672        0.18111681585622
N           -1.42835253434538        3.65110664113610        0.44326236749231
N           -0.38019329585148        1.69322553702597        0.10146838018531
C           -0.14347802008529        0.37976528868387        0.02678732209516
C            1.19452480123195       -0.00064195365269       -0.05953131043871
C            2.34439927322410        0.83553279199402       -0.17557601229355
N            2.28868582905972        2.16826056051337       -0.25084567715889
H            3.71346927160835       -2.18912176802860       -0.06804180175518
H            2.04588908110616       -3.93923673108685        0.24759894039119
H            0.38178717681516       -4.39089941105650        0.38609790014036
H           -1.36123200927705       -2.82217933366661        0.26261323423480
H           -5.04709110688544        1.49091326332119       -0.57050887992852
H           -5.01153257999851       -0.25292528768677       -0.56774207179462
H           -0.54688021387899        4.02498326842160        0.74325103412011
H           -2.27120151497542        4.17701842709103        0.58490870501647
H            3.12069675875402        2.72685319852115       -0.32437201104910
H            1.35248559541963        2.55485347970733       -0.19212355354092
