28
 energy: -50.679625603026 gnorm: 0.000563839424 xtb: 6.6.1 (8d0f1dd)
N           -5.57045871633772        0.85120987589822        0.41191799779952
C           -4.43561300774793        0.67294967081903        0.33676710692752
C           -3.06196516845065        0.41263970079300        0.23399645969616
C           -2.15431347107800        1.39667594600197        0.61875567178872
N           -0.86566580290115        1.46816155679739        0.40878854706932
C           -0.00310052965577        0.51835118636091        0.09144554644242
C           -0.29332681289278       -0.93272760372887        0.14709479405789
C            0.74794208723301       -1.82329748997266        0.36589415273644
C            2.09574086693984       -1.44667371286644        0.30212797247298
N            3.08059431741477       -2.36447982527302        0.51041189406809
C            2.38162138781931       -0.12951061949423       -0.07339609572584
C            3.56568684678634        0.60174267695134       -0.31298882165141
N            4.85344897624892        0.14763160770525       -0.32918042406463
N            3.30403144236784        1.91672652561105       -0.50587606711498
C            1.99153831829309        2.07160272438524       -0.40635817770668
C            1.33108507661580        0.84792867220046       -0.15471350999744
N           -1.49217832616829       -1.44780519527863       -0.13258905904907
C           -2.65937199182527       -0.87460530532453       -0.27114631444000
N           -3.60230302246741       -1.62795100778321       -0.87876498558761
H           -2.56425949224086        2.28857656575796        1.08527215015532
H            0.49778072242649       -2.86191372457062        0.52552099660258
H            2.81323454283999       -3.23807659574278        0.93418427991675
H            3.99650637966323       -2.01891869128996        0.74370892175508
H            5.00917791933601       -0.77346295714575       -0.70891065941290
H            5.51431141633397        0.84765807431967       -0.63378235698146
H            1.53999762974568        3.03724203880944       -0.53301353842205
H           -3.36561554137984       -2.57017751350551       -1.13474677083605
H           -4.56142658550932       -1.32732267672778       -0.89863250599908
