34
 energy: -63.407424146673 gnorm: 0.000702177869 xtb: 6.6.1 (8d0f1dd)
N            4.99631863482429       -3.16924554448242       -0.51933717958776
C            4.06157665859785       -2.51086235518377       -0.39338330349133
C            2.91497672454779       -1.70784686382254       -0.24382140511960
C            1.69758645326224       -2.33324074934132       -0.53275743458893
C            0.41452422694386       -1.87040990776716       -0.40878977811164
C           -0.07364241259972       -0.57065540060960       -0.13408486974489
C            0.75547931028742        0.61270985894388       -0.10235791890911
C            0.14018320471796        1.86335499340328       -0.35257822551866
C            0.90867132564300        2.99823206458178       -0.68827142467419
N            1.44042855220590        3.93996351668221       -1.07511600555399
C           -1.24970378849667        2.02720224810514       -0.39752591945808
C           -2.04696798300426        0.93956334320963       -0.15302308550216
C           -3.46537862779340        0.80408518291047       -0.06087427393779
N           -4.36930876071950        1.78845292355663       -0.18202032115937
C           -3.74338343993833       -0.55327178346543        0.18880567137762
C           -5.00763855233892       -1.10217622861035        0.39857176199377
N           -6.04661912432451       -1.56140927858310        0.58089210592008
C           -2.52348837919299       -1.27835150925750        0.24164840814189
N           -2.45867452946965       -2.60325526913753        0.50278994263375
C           -1.45576993436677       -0.37022776667029       -0.00234530734857
C            2.13138574731236        0.62708926698593        0.26547835942818
C            2.58582180861895        1.83281389488391        0.84474518068297
N            3.01046472331070        2.72358286225919        1.43704575805801
C            3.11680301968723       -0.38498893729814        0.22776186651527
N            4.36489651081239       -0.06803837952945        0.63313701823372
H            1.79680104578707       -3.36007837582730       -0.86694942657714
H           -0.35216891317077       -2.58439471973670       -0.67541621770175
H           -1.65283237376858        3.00889900890190       -0.60082993948524
H           -4.07498212018056        2.73711002509082       -0.32748388869582
H           -5.34947255035325        1.58901478344294       -0.08347635148835
H           -1.59931355364771       -2.99204351898703        0.85494005524699
H           -3.31338396205169       -3.05407038168042        0.79190455035093
H            5.10260353785724       -0.74898466891780        0.56505974157728
H            4.58672230470103        0.86936439215047        0.92433142949467
