30
 energy: -55.727352229553 gnorm: 0.000746267503 xtb: 6.6.1 (8d0f1dd)
N           -5.71139928476775        1.81974089677403       -0.76052381808730
C           -4.72426823044122        1.26668769652812       -0.56440394592475
C           -3.53355237049371        0.56636991429454       -0.32870694958146
C           -3.45273829272053       -0.83772117626828       -0.14182117319524
C           -2.11702776922161       -1.15644144719428        0.02598900022179
C           -1.43109790222137       -2.37149627663733        0.24342365681709
N           -2.07560473820183       -3.53406194888477        0.42999520572302
N           -0.10672170565719       -2.41817059534629        0.23678354783884
C            0.64285286019238       -1.31640066968623        0.11240270768305
C            1.99422179618165       -1.63043599747437       -0.04169089154834
C            3.15062053983997       -0.86733460567632       -0.18746797781487
N            4.30188087246267       -1.52821366265170       -0.44767138024615
C            3.22637992858781        0.54273730617459       -0.03376922605947
C            4.51056173133707        1.12400520512877       -0.12206586501292
N            5.56293625228377        1.57759548906197       -0.20074182942616
C            2.18488756709900        1.41814439980746        0.24339479501409
C            0.81159761346288        1.20808845916487        0.30306636144382
C            0.13257945359201        2.40231445635948        0.65838259329703
N           -0.30546919329055        3.40371021216434        1.00760255576684
C            0.05058512997576        0.02558220540537        0.11189636261582
C           -1.34082473524508        0.06402985431092       -0.02905207210474
C           -2.26022591895917        1.11779706212695       -0.25311401222377
H           -4.29334058550818       -1.50740134020352       -0.14919682925464
H           -1.53545137615571       -4.36987637840424        0.56775411774719
H           -3.07767757531231       -3.57431759666290        0.42256739089952
H            2.15071752105823       -2.70234858522279       -0.08849515581094
H            5.17284461193053       -1.03058949272459       -0.52117435365223
H            4.30493622254440       -2.52936058515692       -0.52229103350129
H            2.49286236792996        2.44567542202464        0.41145755726216
H           -2.03566050138227        2.15708288996833       -0.38710020208633
