25
 energy: -47.514728043764 gnorm: 0.000647956586 xtb: 6.6.1 (8d0f1dd)
N            5.58153477754480        0.32043329286541       -0.07083885578566
C            4.44652448819230        0.14610191483913       -0.06121336391332
C            3.05477745397194       -0.05970912725265       -0.05793885237499
C            2.51675492132631       -1.13980291825607        0.66145337099810
N            1.33804179434361       -1.67172256052881        0.52473918225734
C            0.21179621892944       -1.22272297642186        0.01799209743040
N           -0.77196342029108       -2.07044539759478       -0.19881184620608
C           -2.04265084916897       -1.64839753876070       -0.19459199614777
N           -2.97242789451831       -2.57104061629966       -0.48641683574573
C           -2.35799441812083       -0.31571299404068        0.12550177315516
C           -3.52418495862769        0.44335786214027        0.26014518533678
N           -3.27494808051093        1.75438105271768        0.36922468451733
C           -1.94528682210137        1.91312865263743        0.28783628510219
N           -1.34217373405014        3.10816409698382        0.36156332756285
C           -1.28467235900469        0.65225271496431        0.14586255670264
C            0.01501711505022        0.25970530232704       -0.09541578198529
N            0.95554923340299        1.06009251033060       -0.57364060108653
C            2.23287012846001        0.87214727842303       -0.72636228219703
H            3.16268024472645       -1.66578589493175        1.35857522226582
H           -3.94932009037852       -2.36593085880787       -0.38465083818696
H           -2.66569364938132       -3.51264986434263       -0.66032665706456
H           -4.54248437194700        0.09789921632349        0.27576902331227
H           -0.37016650770220        3.16435622165056        0.10834864513626
H           -1.91566380924285        3.93354790543576        0.33820225743262
H            2.71649435829823        1.61295673619889       -1.35683982121581
