31
 energy: -54.639966436415 gnorm: 0.000842460160 xtb: 6.6.1 (8d0f1dd)
N            2.08653932840218       -2.93125825239049        1.21580931364118
C            1.81735217108253       -1.94335031724666        0.68978287250242
C            1.59543006704043       -0.63632607128707        0.20149960307018
C            2.78046876734755        0.13264574963974        0.07746692473147
N            3.95945774468068       -0.52147967971735        0.24484172376744
C            2.86692082327287        1.48042566763612       -0.27009359731664
C            1.85755921917218        2.43295690100851       -0.34750761258017
N            2.23707571717140        3.71818467872805       -0.60209183598886
C            0.48867335397961        2.23287624316368       -0.10415530749666
C           -0.26198925042655        1.08033187554178        0.03591582116085
C            0.24190229184338       -0.28410708354924       -0.02777863230510
C           -0.67309464133923       -1.33852898922732       -0.23276809482672
C           -0.23113583436513       -2.61324479610026       -0.63169633557122
N           -0.01006146876618       -3.65474396617478       -1.06948264310109
C           -2.08406323403681       -1.17906187450696       -0.16417633220057
N           -2.90201799037809       -2.22392625509874       -0.37144662643683
C           -2.56461075142582        0.09813842948596        0.13155776842367
C           -3.84314735472549        0.64140059598720        0.33522104463539
N           -3.78284553214754        1.95856167700953        0.53375900634251
C           -2.49563063645491        2.31443094285725        0.45211238705356
C           -1.66205610661238        1.21210630297062        0.21293300909241
H            3.96729251023898       -1.48194159705416        0.54164927790650
H            4.82108768235573       -0.00712460095942        0.25791057633578
H            3.87364752432235        1.84999679643592       -0.42904392192967
H            1.53513185756154        4.41051472567630       -0.79331222976230
H            3.17414344329930        3.90942887658356       -0.90734889651544
H           -0.09312690399940        3.14581709834928       -0.08577010349575
H           -2.52453723097218       -3.13184414417530       -0.58677409945586
H           -3.89598724951495       -2.09961867434801       -0.30827329060121
H           -4.79042472767073        0.13223926853051        0.35439110736444
H           -2.22361510303509        3.34530816163159        0.59104947675573
