28
 energy: -50.722351247008 gnorm: 0.000742796680 xtb: 6.6.1 (8d0f1dd)
N           -4.17578218041102       -2.41484757923509        0.67890827253587
C           -3.24446367108605       -1.77104909332576        0.48721240968622
C           -2.09464679388178       -0.99309837409517        0.24569023554842
C           -0.86472477910588       -1.61166192162262        0.07310004821111
C            0.32045392865689       -0.88830027433013       -0.13561168088784
C            1.53600646794295       -1.62050744261198       -0.44014402942788
N            1.41633297281158       -2.79533671728789       -1.08275736680413
N            2.75534797873860       -1.29993909501139       -0.09163997587588
C            3.16663338550018       -0.12164565858093        0.37227125476921
N            4.29718765091809       -0.15246772238303        1.10138082712625
N            2.70397795399079        1.08292639517251        0.08566704341821
C            1.47044900318448        1.38325332554984       -0.28622055383754
N            1.24853837930164        2.62645819193756       -0.68945452155402
C            0.29334398147693        0.53060724358046       -0.16303331008133
C           -0.95871274658997        1.15085631596737       -0.09318330279324
N           -1.24063972297156        2.46539612427143       -0.20761465183634
C           -2.57030173638502        2.57566220213596       -0.04782109952339
C           -3.19769085230211        1.35542637262787        0.16646918026186
C           -2.17750109701316        0.40282545456624        0.13851701841109
H           -0.81887553606449       -2.68918788810253        0.15264334720936
H            0.52642279039708       -3.12149838857007       -1.41397603999060
H            2.25188557488894       -3.31274685429670       -1.29308022680557
H            4.77275261344017       -1.02572162004541        1.23612783152504
H            4.73733945146166        0.71460218501665        1.35012705997752
H            2.02173217100989        3.27158381760625       -0.66427853373807
H            0.24449672153686        2.93339969381573       -0.64722552753077
H           -3.03293199238424        3.54569661267347       -0.10446956594072
H           -4.24545394506241        1.18261700627781        0.31551368584580
