29
 energy: -51.204308401144 gnorm: 0.000746028071 xtb: 6.6.1 (8d0f1dd)
N           -6.01940674991215       -0.67352135718795       -0.04177968887860
C           -4.87893077277165       -0.54017626656078       -0.02969105176871
C           -3.47664361652548       -0.37982675157345       -0.01392331165328
C           -2.99471065915371        0.93559275095443       -0.06527221988629
C           -1.69952826693571        1.38313071610566       -0.05571462497706
C           -0.45832747205667        0.69950500787007       -0.00784436977589
C            0.69212301773254        1.51675954888504        0.01661271724642
C            0.57534512112634        2.91778052030740        0.05420426537107
N            0.57679149642905        4.06788131835396        0.09842362274635
C            2.02399068069348        1.01571291229752        0.03235436217051
N            3.07756684911313        1.86412308346099        0.06646649161691
C            2.17264259356241       -0.36324447926725       -0.02039632293477
C            3.28177343157989       -1.23720014718826       -0.06368902039700
N            4.61212506619590       -0.92089479778149       -0.11286873631649
N            2.88440212824106       -2.52471922181898       -0.01491937632503
C            1.55782387338252       -2.53070133506345        0.03450217320261
C            1.01485310094842       -1.22700260704172        0.01880311784649
C           -0.30016735926269       -0.74023720268555        0.02527323218262
C           -1.34728251460178       -1.68817375801281        0.06669482659128
C           -2.71170147472097       -1.55184679456965        0.05275723235612
H           -3.75938303029326        1.70231713600574       -0.11493658615537
H           -1.59860398264900        2.46208028267860       -0.09501152775157
H            3.97294185539447        1.50322273315347        0.34684316256277
H            2.89935482816395        2.84409411436139        0.22202940952407
H            4.87173793268008       -0.13443514117645       -0.68953839822512
H            5.19786580956125       -1.73425581077223       -0.23905556554663
H            1.04192010531931       -3.47231560623835        0.06955338625319
H           -0.99695625623347       -2.71052491679268        0.11528863792050
H           -3.28342530540738       -2.47202680630333        0.09327271300095
