22
 energy: -39.534108968032 gnorm: 0.000555795949 xtb: 6.6.1 (8d0f1dd)
N           -0.17508059758171        3.12167185703576        0.07927418650340
C            0.21267374443519        1.81065584109954        0.08885528412496
N            1.50267301874649        1.62430136427236       -0.03128342629127
C            1.97009732469425        0.38673816694122       -0.14767724404932
N            3.22143905010218       -0.04080006405341       -0.12946000043870
C            3.10056697689384       -1.38669829310989       -0.18231655103228
N            1.87946082816712       -1.88749935763891       -0.17795027115363
C            1.08784452779360       -0.78532687170471       -0.15327139145058
C           -0.25728326298909       -0.61756997132374        0.04600038409488
C           -1.07530747024730       -1.73521571988103        0.44769690069601
N           -2.30876005471002       -1.92484937782722        0.18633487666738
C           -3.22542386491873       -1.10639353263618       -0.31210672341817
C           -3.24261982354534        0.26147201542659       -0.15815711683001
C           -2.12758920148162        1.06558423339595        0.12065886031930
C           -0.77984404820702        0.73799714107545        0.09469673188118
H           -0.97425456728433        3.41698063392270        0.61280223511302
H            0.60713150982665        3.75815744451632        0.07811577144328
H            3.97081401877497       -2.01665243076233       -0.20695810468028
H           -0.56212308271178       -2.53544514037121        0.97109084322278
H           -4.07886169442540       -1.61335745627190       -0.74603704627728
H           -4.18221919000703        0.77403387723142       -0.31498352764257
H           -2.36490618112504        2.11583313636306        0.22743022399814
