26
 energy: -48.023890390767 gnorm: 0.000880505865 xtb: 6.6.1 (8d0f1dd)
N           -4.48323382676538       -1.56882895916298       -0.17514722353736
C           -3.55607099488621       -0.89153704053519       -0.14955452130216
C           -2.46210847974780        0.00346803911043       -0.12241529296534
C           -2.79089531168393        1.28753865200702       -0.56490837973829
N           -2.14914957408983        2.42068681882952       -0.40688346297080
C           -0.94140031120490        2.55832451466721        0.09331626325667
C            0.09349368166640        1.63748931809309        0.21304703106690
C            1.28758148790877        2.19368137320012        0.70145811870689
N            2.24494736655865        2.68488594570337        1.11097872255279
C            0.06363994299264        0.20721033401714        0.03255757664559
C           -1.17183467651789       -0.54319382204926        0.17469520459768
C           -1.11189745638009       -1.90582374361335        0.49304117531370
C            0.07477312940672       -2.61447014449453        0.52214888479621
C            1.23563092480567       -1.95891247565836        0.16372270755639
C            2.56866056288646       -2.37926276794968       -0.02965460955066
N            3.34610576278789       -1.38916029426047       -0.43581113855366
C            2.59499299407022       -0.26553059041384       -0.48987277378325
N            3.14677909525895        0.82758739494197       -1.02140794458986
C            1.22949124209291       -0.53691155285096       -0.09578275845920
H           -3.76764197135346        1.40505163110451       -1.02601487375190
H           -0.71095350494713        3.58171507507239        0.38029252271659
H           -2.03853377717408       -2.42235178874237        0.69331153409425
H            0.08154406688605       -3.66516476481335        0.76849511480421
H            2.96582004866050       -3.36824054608407        0.10623140942967
H            2.75803636839929        1.74682239139710       -0.89013838035727
H            4.13266602936932        0.75484956958407       -1.22257861647727
