29
 energy: -51.195030298231 gnorm: 0.000686939136 xtb: 6.6.1 (8d0f1dd)
N            2.03784830097117       -3.28877874054012       -1.02047863730548
C            1.28370087956552       -2.50507952400576       -0.65068056130746
C            0.24257296562846       -1.61375427124658       -0.31810516807866
C           -1.03986766507404       -2.17225760053078       -0.22648870140815
C           -2.10791833318428       -1.35240620015023        0.03788612271763
C           -3.48664800667046       -1.61451730819504        0.23299451858514
C           -4.13516370541247       -0.41555635442787        0.42262699091615
C           -3.20134650002214        0.64267030071938        0.34043102188219
N           -3.51091053596126        1.95578583385410        0.50839621783312
C           -1.92129807378895        0.08002019069020        0.07573335294123
C           -0.67739613801555        0.66470088254972       -0.18056300217113
C           -0.60561779522969        2.01065231350973       -0.59594504101696
C            0.50790192610897        2.78452690699145       -0.85125701316810
N            1.76146452791647        2.62894226536009       -0.48726430444513
C            2.30086665298863        1.55631663543132        0.07398187745290
N            3.51464707285111        1.78878820833733        0.61717805398186
C            1.79634819064025        0.22029845381623        0.07789937647621
C            2.73916611220787       -0.72532233054341        0.52943437237462
N            3.56851033938533       -1.36735833677844        1.00393807424784
C            0.47712253941820       -0.22665200149278       -0.17505109020654
H           -1.15835521029460       -3.24022434212454       -0.33794582061329
H           -3.93570868690233       -2.59012919577863        0.23695796561560
H           -5.18335406702602       -0.28342418754921        0.62130616088172
H           -4.42649479662108        2.15746447445147        0.87834450608368
H           -2.77517914746649        2.58572918080108        0.78626854641621
H           -1.55204947648166        2.45606118038480       -0.87084638292588
H            0.34091383422524        3.72982637014765       -1.36063633823781
H            4.09514526921398        1.03331076015655        0.93943967062112
H            3.90717135142643        2.70582703636382        0.49228157275907
