28
 energy: -52.268312834359 gnorm: 0.000843618952 xtb: 6.6.1 (8d0f1dd)
N            5.43069871642670       -1.86952051030197        0.39719826900472
C            4.33966472212937       -1.53620287970173        0.27376827357979
C            2.99271822358246       -1.13450684392695        0.12896710993400
C            2.02327666642700       -2.15288948672374        0.19140214893244
C            0.66755685185736       -2.05141330498215        0.05221473920618
C           -0.19034909106707       -0.92290814632374       -0.02754190993161
C            0.22059755276665        0.46024904583111        0.01976852760911
C            1.56343569411564        0.89758590404097       -0.22788923863147
C            1.73218870758776        2.22298731718021       -0.70472353729738
N            1.95873528934770        3.22615839241326       -1.21440064646510
C            2.76594149447132        0.21247458557726       -0.14575607633012
C           -0.75629115844934        1.45660575676594        0.23978756033532
C           -0.40589571292795        2.78026902271470        0.58999192152764
N           -0.24955839870229        3.84495319952093        0.98893663725822
C           -2.13456038075160        1.18817950402700        0.23486608887520
C           -2.54182172149262       -0.09669812894360        0.00661914514232
C           -3.81098210766878       -0.74943220318872       -0.10269045685755
N           -5.02409371826967       -0.18785215239790       -0.06558615393396
N           -3.65376771038580       -2.07747522971327       -0.26013651720743
C           -2.34855740271068       -2.33032593526773       -0.25458026781015
C           -1.56928783320279       -1.16164910753792       -0.10231338849363
H            2.41919021670338       -3.15199948860697        0.33128090793979
H            0.13393627075315       -2.99216751185029        0.07421099419277
H            3.65292973890281        0.81464824354233       -0.31416640436953
H           -2.82672226897235        2.00095917942626        0.40316346287945
H           -5.13697729822828        0.80319132020168        0.04649349939109
H           -5.83135846777921       -0.77843154391448       -0.16398318526464
H           -2.01537505176248       -3.34520618645790       -0.37117142551129
