27
 energy: -46.952574989583 gnorm: 0.000512536644 xtb: 6.6.1 (8d0f1dd)
N            0.45899493513096       -3.02663623910564       -0.91596262781022
C            0.72544361729675       -1.96138626296769       -0.55688557643154
C            1.10469111725924       -0.68190434425634       -0.14373600350613
C            2.51749554185760       -0.50835516193921       -0.02291172477708
N            3.31283726744996       -1.55085598008500       -0.35592488350692
N            3.19154098088860        0.51323718070051        0.47609956379878
C            2.74617351495023        1.74390105019744        0.64782446185057
C            1.56003349296884        2.32620367641208        0.26683454026049
C            0.33984527113919        1.72227336445021       -0.10799908162098
N           -0.59860058509876        2.59158440467312       -0.46614232509162
C           -1.86049194801227        2.20983026777554       -0.60485975337078
C           -2.27507148137584        0.94918112200111       -0.25139122772958
C           -3.56073853135269        0.35971484401312       -0.14087413020455
C           -3.40460305892031       -0.92182456158603        0.31504073994375
C           -2.02237089489053       -1.21065845167479        0.48164861101348
N           -1.60177735020282       -2.34111519634468        1.08870835342580
C           -1.28429796505616       -0.04936420297618        0.10161148303553
C            0.07353664563778        0.28489448044509       -0.00169385049977
H            4.30396080847772       -1.42677947785443       -0.24985017772395
H            2.94516116287990       -2.39904527995290       -0.74877562416199
H            3.49883572944445        2.39350748526462        1.08536190603539
H            1.50012672932261        3.40488050236140        0.32003384174249
H           -2.54808127506630        2.97225569452594       -0.94815132581289
H           -4.48700385163664        0.85471138372026       -0.36568366471752
H           -4.18979575110344       -1.62250241456205        0.53510655932484
H           -2.28715742153580       -3.07036226705855        1.20362365434855
H           -0.64669211915222       -2.64629878517691        1.00613894928603
