28
 energy: -50.686696520170 gnorm: 0.000705665778 xtb: 6.6.1 (8d0f1dd)
N           -1.64956816942600       -2.88279958452734       -0.86200029928437
C           -1.54314573644472       -1.78273342808211       -0.52786825120190
C           -1.47584797453870       -0.45058918094553       -0.10859708049708
C           -2.70750815457117        0.27267071815511       -0.23062734942584
N           -3.70220668991203       -0.28249609952152       -0.95585034884894
N           -3.03813660269594        1.39302719082648        0.38906030028480
C           -2.17318193287971        2.18502135865059        0.99385889919966
N           -0.91433287979995        2.36588911895915        0.75958716532464
C           -0.02991076735144        1.56452184695325        0.18058346698787
N            1.06911889315411        2.12461766934042       -0.26959975039560
C            2.17190687363983        1.38728625474956       -0.46598151484342
N            3.21573999378940        2.03237222066492       -1.03082356353253
C            2.22354538966396        0.05449998748596       -0.05426462264916
C            3.26975501763873       -0.88009380766559        0.03636954217625
C            2.74902037902443       -2.08412965601378        0.47052742108298
C            1.35654428899732       -1.96654769200949        0.62895968728327
N            0.58338880780100       -2.92869567485464        1.19086649689962
C            0.99175140145477       -0.62206051635377        0.29213793561376
C           -0.20327160196506        0.08812889931521        0.19723593755095
H           -4.59617340676390        0.17619583841751       -0.94518086209526
H           -3.61762815390219       -1.20842928401379       -1.33797100348997
H           -2.61809473825995        2.87636832395383        1.70443461183308
H            4.12955681299468        1.61754982656242       -1.01004909584767
H            3.12894030725363        3.02715367147458       -1.14822638522870
H            4.30426322796421       -0.69385837631017       -0.19089131936532
H            3.30740227276610       -2.98164375569845        0.66474117345894
H           -0.41006032720672       -2.92574492953257        1.02887536442092
H            1.00327764627534       -3.84108914517956        1.27032856078916
