30
 energy: -54.930659900549 gnorm: 0.000656488828 xtb: 6.6.1 (8d0f1dd)
N           -4.83670955754709        2.03032785293247       -0.05036054581509
C           -3.94482354154065        1.30500276383771       -0.06655462643942
C           -2.87060077570722        0.41422713588064       -0.07846632904574
C           -2.95552444125469       -0.98565785863834       -0.14882797534681
C           -1.67499229215264       -1.54223174663294       -0.12051323652727
C           -1.38972862803945       -2.89964955028298       -0.22554013226962
N           -1.13632025392040       -4.02282768357693       -0.28578343949323
C           -0.73347573289378       -0.47025722199013       -0.03403950998400
C           -1.50430957773757        0.75363738475426       -0.04056056727057
N           -0.93375608749807        1.95188493602623       -0.03610881532751
C            0.36936390234450        2.03990112312650       -0.00052015179154
N            0.86277955115380        3.35451648270605       -0.05500307478692
C            1.25574368954241        0.91170791829301        0.08627554336624
C            2.67624536897704        1.12547172340447        0.18476073750724
N            3.11406828770717        2.25053536745098        0.77450139219113
C            3.63624939146730        0.30817243574505       -0.43935638222592
C            3.44334967025759       -0.99480414186416       -0.84670318553818
N            2.55983131207546       -1.82485178500922       -0.34486100029829
C            1.46458277077129       -1.56948869402322        0.31090922315107
N            1.04195254991538       -2.46701817593772        1.20440746437189
C            0.64703354662503       -0.37653682047780        0.07782201203376
H           -3.86998876539103       -1.54710181364442       -0.21752974416862
H            1.52957102712528        3.50998117597579       -0.80179445530382
H            0.07377278618079        3.98516681740423       -0.14890823561697
H            2.44569632185855        2.93745476824316        1.09393041003716
H            4.09385612945346        2.47558723517597        0.75888483309014
H            4.60528284310939        0.75563026406840       -0.61900726598684
H            4.16098453997909       -1.45731019470137       -1.51340752063297
H            0.09892431643578       -2.42883485330069        1.55472151073368
H            1.52215538700326       -3.35144925464501        1.25580604568711
