28
 energy: -52.282149320241 gnorm: 0.000758622977 xtb: 6.6.1 (8d0f1dd)
N            4.65996425972567       -1.72558257971402        0.08562715403104
C            3.84341447906390       -0.92378950832851        0.00536207356191
C            2.84346103923337        0.07180646633581       -0.07450443459613
C            3.17471294382817        1.26804519443966       -0.72458093969657
N            2.63464795211724        2.43041635229843       -0.48529520749964
C            1.49518837183715        2.73515118860677        0.06219711474358
C            0.32800434657904        1.94344684582264        0.13302182078274
C           -0.91262935225131        2.61936956356084        0.19072659359059
C           -2.10831714721093        1.95317877096592        0.14734935008916
C           -2.09824581744064        0.56397506614395        0.02969361839680
C           -3.14673897895959       -0.36558573142468       -0.11694030969338
C           -4.50740329008476       -0.05445980915759       -0.16883012026875
N           -5.62419420424098        0.21436018316716       -0.20329673259340
C           -2.58100165399796       -1.64696097524809       -0.22955016497056
C           -1.19578241103948       -1.55171347685880       -0.11338787870380
C           -0.32192678966459       -2.62649940278497       -0.27420809063607
N            0.40940072755128       -3.50746005399650       -0.39556796648533
C           -0.85314488959755       -0.16778511512037        0.06057874303038
C            0.36318657316779        0.50591437005860        0.16950243007416
C            1.57996215287953       -0.22083465648001        0.48679728353780
N            1.47938718844686       -1.27145326632005        1.30391736352500
H            4.04947346515431        1.28883857152019       -1.36419495923654
H            1.40865807338722        3.78107553964412        0.34017897837768
H           -0.89488749453981        3.69756570265464        0.23407066671023
H           -3.04742994312725        2.48502914418739        0.17910663400675
H           -3.12829888622765       -2.55824205944167       -0.38889781753820
H            2.26168368736292       -1.89865657592488        1.42120500944935
H            0.57852523114724       -1.58066745570582        1.63209225611106
