31
 energy: -54.646954907973 gnorm: 0.000518692967 xtb: 6.6.1 (8d0f1dd)
N           -5.45596213554357        1.74481859980171        0.32117981373865
C           -4.36784638773669        1.38607464472566        0.21670616570457
C           -3.07107690538989        0.88008778679296        0.10966230676334
C           -1.88334681196136        1.60097448500689       -0.00769583015592
C           -0.81806610027068        0.68723758156258       -0.04686532366652
C           -1.37694842177190       -0.64307750716891        0.02177680888243
C           -2.77061238442382       -0.51314752246321        0.14171130030625
N           -3.70780409134059       -1.51428594431276        0.23538057849670
C           -0.54281507243625       -1.75414735278906       -0.12375475600374
N           -1.03335846098670       -3.01970492405504       -0.18843769244231
C            0.85202351871068       -1.52572949631606       -0.15476827065106
C            1.67575930385588       -2.65678722805875       -0.25813265564513
N            2.30953432534488       -3.61373808736103       -0.35629301658142
C            1.43994656001257       -0.23468643485130       -0.09086593376964
C            2.81923617765651       -0.16559534425322        0.09078496309306
C            3.68389427076425        0.93482558912830        0.17730014740715
N            4.97874862984257        0.66762800805386        0.48160974621712
C            3.34239591907826        2.27259178587442       -0.07246125820887
C            2.08726324055578        2.75450322903353       -0.40615103611029
N            0.90601234055254        2.19568690227502       -0.38107657785115
C            0.55659217656591        0.93261062209414       -0.16075033245120
H           -1.79129980290142        2.66865019279992       -0.04806996108228
H           -3.44673202132251       -2.32416519185582        0.77789288733484
H           -4.64383535744948       -1.18491982743350        0.42838554067959
H           -0.38991316212805       -3.75785001190319       -0.42990023903348
H           -1.98904684490578       -3.13661279184466       -0.48005979897799
H            3.30826441573243       -1.12483732759235        0.22856342155836
H            5.29180999237602       -0.28021096916967        0.58992632031734
H            5.65851001128639        1.40556217399218        0.50306722539236
H            4.15091254079242        2.99142790802510       -0.04201338202531
H            2.04043521654148        3.80247621566351       -0.69505420293561
