30
 energy: -50.120193425039 gnorm: 0.000730707990 xtb: 6.6.1 (8d0f1dd)
N           -4.68485453130537       -1.76534657898522        0.37020125020812
C           -3.80363109595055       -1.03661267108242        0.22112766336139
C           -2.75593527593792       -0.14181289798021        0.05466314144474
C           -2.87505342926337        1.24480286168640       -0.15003432101135
N           -4.04871003332961        1.92049412570626       -0.31578265141392
C           -1.58480327401903        1.80945396678540       -0.24233938294437
C           -0.64178585047593        0.79674644230038       -0.10813361289406
C           -1.36744386427846       -0.44476256560500        0.08709090745274
C           -0.69795312543198       -1.62069391662210        0.30239064724503
C            0.70304996470600       -1.64978431484158        0.23607658971106
N            1.34187654505924       -2.89882340116098        0.33552052531987
C            1.43812728207059       -0.48293741894550        0.02055946597283
C            2.84645825599101       -0.56475971310675       -0.32664341710803
N            3.23258044772955       -1.58714681186228       -1.11336110684638
N            3.81510225448843        0.21612846869864        0.08176003350227
C            3.76593877811248        1.46073888407410        0.50435083796255
C            2.73331194462839        2.36374565138125        0.32136977573099
C            1.42014216769206        2.04549717418538       -0.00341782667772
C            0.77617362743029        0.80597555279678       -0.04244809873087
H           -4.89322638487548        1.44316061997369       -0.04638133864050
H           -4.03899471981752        2.91852103930589       -0.19148448950334
H           -1.40523163791769        2.85642604389366       -0.40597859917658
H           -1.24143216638491       -2.53889776289649        0.48003601295757
H            0.71843794325153       -3.61660449889458        0.67973170333478
H            2.20564977866593       -2.88227096476597        0.86097769770443
H            4.20931642261166       -1.67839871294325       -1.33524395688927
H            2.58532030296690       -2.32452157252940       -1.33681712949833
H            4.69718549875896        1.80771626282503        0.93941461049095
H            2.95936528942616        3.40838082412812        0.48781312868103
H            0.75900166389867        2.89509064058056       -0.11213025394564
