25
 energy: -43.511953309702 gnorm: 0.000526101126 xtb: 6.6.1 (8d0f1dd)
N            5.05504689601672        1.09033260915128        0.27668885498224
C            4.07818501797668        0.49191511252961        0.17644704936156
C            2.90841337887250       -0.25534874945773        0.04204129059860
C            2.82487743654388       -1.63565414077212       -0.17235118346206
C            1.48813262912814       -2.02730161064145       -0.26277814591391
C            0.68205875407999       -0.89800917070022       -0.11048449694086
C            1.57899319772986        0.23937452354384        0.09874639145827
N            1.15831026658437        1.46611102272169        0.31237684618872
C           -0.14360963978153        1.67576134389606        0.27591381111057
C           -1.11813090862758        0.69267384343805        0.05489087671178
C           -2.49058103629162        1.09501384502172       -0.12140577347826
N           -2.74147932633612        2.30425889687487       -0.65054647726323
N           -3.55665866439857        0.44158766261491        0.29600083480733
C           -3.73515188314499       -0.83408735332873        0.48989832071738
C           -2.91413742174890       -1.88585156215833        0.06313339729175
C           -1.57839250347191       -1.78547030701988       -0.24213391212457
C           -0.70774901442366       -0.67908913073882       -0.09380833346344
H            3.67237436619063       -2.29186008888327       -0.26153219571978
H            1.16092306598434       -3.03877201132755       -0.42252647483788
H           -0.44033944622554        2.69984290120754        0.46631761927389
H           -1.99716145322714        2.90715728157539       -0.95223077645025
H           -3.69652722352015        2.61301992949036       -0.71661434140355
H           -4.68006307362752       -1.07844820121210        0.96360598433674
H           -3.36162712621843       -2.87033914061777        0.03896303589666
H           -1.07931806416328       -2.70910042550740       -0.50524312987757
