32
 energy: -59.190921796028 gnorm: 0.000550052623 xtb: 6.6.1 (8d0f1dd)
N           -5.53549881774533        2.09956601130465        0.00329276450639
C           -4.59662224350366        1.43735131554975        0.00105475217216
C           -3.45598441174478        0.60396252493974        0.00014189676025
C           -2.24109966554820        1.25313935036210        0.00424343975925
C           -0.91064829033479        0.79955566712415        0.00269011502341
C            0.04111529160253        1.84731082262624        0.00744614594605
C            1.40416573397973        1.64544154118056        0.00529167790218
C            2.28980637392457        2.74477490845407        0.01195015136079
N            2.98969779743316        3.65290289521239        0.01590283020258
C            1.87649113000475        0.32407828518185       -0.00444636524407
C            3.14702559432222       -0.25799871256326       -0.01207553668182
C            4.41049506931401        0.32304100932751       -0.02648049352197
N            5.48853262247637        0.72435675167371       -0.04830663076019
C            2.90706755575898       -1.66586255247750       -0.02327655008779
N            3.85896403841059       -2.62105461688306        0.01185573077264
N            1.60511033420366       -1.95269572996208       -0.02403066233460
C            0.92912814888034       -0.76691785701027       -0.01005390990292
C           -0.45707176040654       -0.56898554786728       -0.00392361751922
C           -1.32246815142031       -1.73256038301707       -0.00041260695763
N           -0.70588618247753       -2.91374989896573        0.00106186446122
C           -2.72374045497609       -1.78130344301420        0.00190738722514
C           -3.70130556891606       -0.80337787846637       -0.00173668948872
N           -4.99545513538209       -1.19664091701384       -0.01099718566259
H           -2.33460665719984        2.33444675145058        0.00844158620795
H           -0.32021914208584        2.86571518693806        0.01337637336642
H            3.59393129948439       -3.57526531150618       -0.15497439454107
H            4.81486065434031       -2.35135149924340       -0.14213503596253
H           -1.24352610282496       -3.76350632040104        0.00787300044272
H            0.33530657932177       -2.90278277155958       -0.00199303791205
H           -3.11866816113729       -2.79349405715514        0.00395758088384
H           -5.73498320429607       -0.51521922328200        0.00292747098544
H           -5.23407542385797       -2.17165598133742        0.00599613339871
