26
 energy: -43.229068316623 gnorm: 0.000844151608 xtb: 6.6.1 (8d0f1dd)
N            4.66933100988012       -1.53722676727761       -0.00315241417007
C            3.65224480702910       -1.00342258376013       -0.00175409875900
C            2.41332639561579       -0.32050569434468       -0.00179558181637
C            1.29044091486141       -1.14500247642635       -0.00188974890845
C           -0.07402447028744       -0.86751581068582       -0.00160354804868
C           -0.94403292335903       -1.99223082728413       -0.00180816677264
N           -2.25048369307870       -1.96201201512791       -0.00158137243852
C           -2.83378694125683       -0.76925941517194       -0.00110802389137
C           -4.18725418913506       -0.44614521547536       -0.00077821225240
C           -4.28745569175529        0.94998766522724       -0.00032139300751
C           -3.02156054078518        1.52459712271446       -0.00035240534801
C           -2.07061680546806        0.49055283843853       -0.00083985300689
C           -0.67724000504152        0.45402022792480       -0.00108120146075
C            0.03709290434347        1.67585668905430       -0.00079924604721
C            1.37316851110178        1.95839710668940       -0.00092332610851
C            2.48596293637690        1.09190624521248       -0.00136759293943
N            3.71187862197339        1.66489707798166       -0.00137437417582
H            1.53128142410491       -2.20392052859571       -0.00221985213078
H           -0.50494824449563       -2.98280425475151       -0.00219096851325
H           -5.00131020079622       -1.14480687203926       -0.00085851182451
H           -5.21207656221108        1.50064674419349        0.00000593196902
H           -2.82643358295065        2.58203788436133       -0.00004953778546
H           -0.60864810336199        2.54459404819868       -0.00040534781004
H            1.63478871856064        3.01092808326615       -0.00060961996145
H            4.54091003857626        1.09534507436520       -0.00161003766947
H            3.80620001215902        2.66437316691270       -0.00100273042229
