28
 energy: -51.470337763689 gnorm: 0.000916931443 xtb: 6.6.1 (8d0f1dd)
N           -5.82131848100066        0.36312741508789       -0.19311959532359
C           -4.67733372542229        0.35748323816250       -0.09331509998511
C           -3.27372744267811        0.37096501154093        0.02907617766339
C           -2.68126493685902        1.56089418731528        0.53063434395487
N           -1.45444556973363        1.93900003735270        0.48289870209039
C           -0.32618653153334        1.29795412068382        0.12850224823966
C            0.75549250332162        2.12531508850515       -0.12990064848382
C            2.07635320769790        1.66421310207140       -0.22767892133573
N            3.09042979443073        2.52559937717446       -0.49704844076561
C            2.29387734987242        0.31747889392661        0.07009004820678
C            3.44188587978124       -0.48447002637539        0.24187185089453
N            4.75120171879414       -0.12294887016180        0.18578902425005
N            3.10456420488336       -1.77740233839594        0.47554765835375
C            1.78754213617873       -1.85335817830101        0.45618168476487
C            1.18010746078053       -0.58894556661547        0.21634547587433
C           -0.14123588714892       -0.15660765451876        0.11442238932228
C           -1.21242211565517       -1.05232486122147       -0.15343305434659
C           -0.89656215568882       -2.39008903154156       -0.49237787395994
N           -0.73561552959291       -3.48353999797757       -0.80241601965265
C           -2.57795413448731       -0.79208143460240       -0.27684312801501
H           -3.35638000670788        2.29077036976046        0.97206443661921
H            0.55862253475731        3.18380467582836       -0.21051075549422
H            3.96590458899827        2.14781615397511       -0.81727815788401
H            2.84831163360899        3.44721679689532       -0.82181317645540
H            5.00109619974466        0.80123334450549        0.50023209350804
H            5.38470337756318       -0.86063171754735        0.45623422340250
H            1.30504097821241       -2.78984445723496        0.65871017737087
H           -3.18156218664474       -1.63429040769429       -0.60079598146100
