29
 energy: -55.226735467423 gnorm: 0.000555292696 xtb: 6.6.1 (8d0f1dd)
N            4.39831989852410       -2.64669606578850        0.14886762421440
C            3.59581682275976       -1.82416541424703        0.12611019982242
C            2.65822426901202       -0.77415740111433        0.08757477752203
C            1.32149657650288       -1.07078990822190        0.26946394898169
C            0.19573119253019       -0.24670838528113        0.14579224361598
C            0.16481343433318        1.19603334784355        0.08559930697597
C           -1.03716008328517        1.86292393616835       -0.12861881353399
C           -2.26461480578732        1.20860796444267       -0.28628171676822
C           -3.42584481171340        1.96133940031482       -0.54516702001238
N           -4.34875135975735        2.61192360550159       -0.75150499802844
C           -2.29740427837360       -0.17736705885293       -0.15114825689966
N           -3.29511333756822       -1.06320212967105       -0.20159734758416
C           -2.67633489215870       -2.24237243289532       -0.00947089747970
N           -3.34598760352336       -3.40275919401207       -0.01452121791719
N           -1.33183920961478       -2.19939724520098        0.16432660873545
C           -1.04997822830088       -0.89853225573122        0.08650141135508
C            1.35077263571304        1.96625934193081        0.36572464265880
N            1.20868247103698        3.17172135015550        0.94040229837238
N            2.59343638725253        1.67123780041774        0.04766984551547
C            3.17071422669611        0.52845413555222       -0.23728715908491
N            4.38974398683050        0.61151233817164       -0.79586192246078
H            1.07547219999111       -2.11408107073911        0.43257801941407
H           -1.03835207174205        2.94004512541840       -0.22910215314702
H           -4.34876567052447       -3.37427532256279       -0.03878337592734
H           -2.86165515194273       -4.24229458835873        0.24437581846068
H            0.30878592690683        3.51028624413727        1.22958996478160
H            2.03179404432272        3.72414822170593        1.10944321484082
H            4.77865172473126        1.51873461735967       -0.98582404233919
H            4.94209768335122       -0.21574114074533       -0.94630817598779
