28
 energy: -52.271617134819 gnorm: 0.000349007773 xtb: 6.6.1 (8d0f1dd)
N            5.70766071961790        1.05428016525632        0.63606686348643
C            4.68827747998364        0.57463299961017        0.42561785764737
C            3.42041752627259       -0.00760138774381        0.16351870702888
C            3.40220280986595       -1.38362997469211       -0.01646750558326
C            2.28492862590638       -2.18520270674636       -0.24212972309292
C            0.95776365504801       -1.82722369207501       -0.25071366843063
C            0.31694103563893       -0.57155084888548       -0.12943937781873
C            1.00449435928134        0.72401895617678       -0.12805144068362
C            2.35954587173122        0.91104612660717        0.06732540857964
C            0.18015881847066        1.91037244937887       -0.24210162690254
N            0.73976967218939        3.14677931449211       -0.39279738232751
N           -1.13046528938311        1.90746425162424       -0.13928741594688
C           -1.75375269772448        0.74778150064551        0.00700811089877
C           -3.13519320577035        0.50673986090392        0.13716849498915
C           -4.14155103912575        1.47302633064943        0.21372592134822
N           -4.97686929416436        2.25890978671732        0.27718333130728
C           -3.32145953460688       -0.88823581300925        0.16856468516537
C           -2.08876282562308       -1.53168761916315        0.06051954958789
C           -1.93082952818974       -2.91839730330595        0.06422333181636
N           -1.81691413122590       -4.06375692955305        0.06678252025868
C           -1.06962841414323       -0.53140690134586       -0.03413470914373
H            4.36106131034186       -1.88463693693820        0.03322495862371
H            2.48716393251902       -3.23932434643985       -0.38015381950392
H            0.26591678235771       -2.65219646647643       -0.36624905779451
H            2.67393967926482        1.94051033147827        0.19759285043299
H            1.59171120950483        3.25911443986605       -0.91425953256051
H            0.05694551247307        3.88070128999333       -0.50361991194543
H           -4.27127306550894       -1.38264225722619        0.26373787396294
