31
 energy: -54.664493122591 gnorm: 0.000683057609 xtb: 6.6.1 (8d0f1dd)
N            5.56631131207130       -0.74008819595333       -0.25822632153712
C            4.44005827036914       -0.53991090658316       -0.13986462456431
C            3.06877435924893       -0.25724111260224       -0.00653267898138
C            2.20776438132988       -1.30877749733543        0.28058956572790
C            0.80924661223674       -1.35699537428033        0.27265021207001
C            0.22328783353319       -2.65307324705451        0.25125697219466
C           -1.11486463642167       -2.85442611720894        0.07597273547668
C           -1.96719500614119       -1.75196519282298       -0.06965206410697
C           -3.33305967095346       -1.65411412686377       -0.28816555416729
C           -3.67500864723739       -0.29097917602623       -0.34705096857390
N           -4.93122250664373        0.21202907777145       -0.50991592061025
C           -2.51649661878221        0.48787165693616       -0.12839682659605
C           -2.49502609284148        1.87116238421286       -0.20441975824591
N           -2.50658365268483        3.02448108878450       -0.26509907390972
C           -1.42102477965162       -0.41028661562004        0.05398456257892
C           -0.06596555770446       -0.21435762547935        0.26912253563981
C            0.45667513278062        1.08857429423083        0.65002927810473
N           -0.26373150366173        1.82058606618402        1.50794132478382
N            1.56817048939217        1.63405874397400        0.22715373928021
C            2.66314233062266        1.09125804836625       -0.25466315626010
N            3.49411984730001        1.91349352559068       -0.92058051404081
H            2.69976686261003       -2.26813722439532        0.40199660872554
H            0.88681966490283       -3.50236195736769        0.32821515184598
H           -1.52004693008743       -3.85472175108878        0.02913644494486
H           -4.02058154436977       -2.47084554504437       -0.40532804996335
H           -5.01217937521697        1.18927574513812       -0.73929126981359
H           -5.63170181560845       -0.39729610418481       -0.89684797553868
H           -1.20513494622287        1.54771888890088        1.73504643439837
H            0.00744306801908        2.77625572499300        1.67210064785464
H            3.23736834829520        2.87906606812624       -1.02647412482191
H            4.40926016541799        1.60157515040209       -1.19625879339505
