25
 energy: -46.731153195180 gnorm: 0.000984983909 xtb: 6.6.1 (8d0f1dd)
N            3.38328613076606       -1.84716173426287        0.82715650401809
C            2.71122281335833       -0.83597387728018        0.23892622241327
N            3.49722293026852        0.12374908548263       -0.27095142641267
C            3.03008587125259        1.29059359069284       -0.65360314789241
N            1.92918798683138        1.92816186686630       -0.36066114050149
C            0.77767052927562        1.40689162790166        0.06180499246546
N           -0.16099318704060        2.27335936825742        0.42065551221430
C           -1.43873581537978        1.92255805337654        0.45462239538751
C           -1.85014200047641        0.67382009846796        0.04580861149908
C           -3.08961115012410       -0.03734826236656       -0.07851476644765
N           -4.31850193739303        0.47895938777839        0.04426153572860
N           -2.90223162912397       -1.34264087161191       -0.32317459380102
C           -1.57059517183243       -1.54234519864496       -0.37074420456336
N           -1.00354035625500       -2.73119424756640       -0.58237491593561
C           -0.84536816756746       -0.33176547648164       -0.17476294753676
C            0.50155542917000       -0.04210613564832       -0.04011938348108
N            1.40632462507811       -1.01826824772059        0.11045720971674
H            4.38586384517847       -1.80921244977541        0.84551481098446
H            2.89140047013905       -2.66265448618837        1.14209832413882
H            3.73665166035368        1.87598651619982       -1.23904063019190
H           -2.12267694173959        2.69103294232852        0.79448361923831
H           -4.44671216477841        1.45814805143357        0.21949519721723
H           -5.11325334281456       -0.12713598414267       -0.05204936204246
H           -0.00118172493240       -2.77666596268418       -0.48490956607317
H           -1.56855328211385       -3.56122404811199       -0.61487056414234
