27
 energy: -47.748506051049 gnorm: 0.000967102664 xtb: 6.6.1 (8d0f1dd)
N            4.54871820770582       -0.50408794671194       -0.31731495273583
C            3.41100765520509       -0.40266837006046       -0.19883882622813
C            2.01016354066730       -0.31052935404150       -0.08117903864593
C            1.23719659739368       -1.48426761996957       -0.01909601368359
N            1.87465120359329       -2.70263307782476       -0.00327725849331
C           -0.17152540882096       -1.40586389147318        0.08087517324921
C           -0.87676108136809       -2.59643537379648        0.38846910484861
N           -2.08549680638278       -2.95257108763910        0.07530749605849
C           -3.10682414971476       -2.24081028167331       -0.32633027920443
C           -3.27061024870460       -0.86498287755944       -0.14377409633379
C           -2.25799689275395        0.04389956818119        0.07164659235946
C           -0.85222037580518       -0.11708038734883        0.04396102691396
C           -0.05150965342135        1.03017976602761        0.05428345831820
C           -0.35021483202094        2.42016459721452        0.07487566863213
C           -1.59160762680291        3.04941419066211        0.13195415695251
N           -2.60137531056036        3.60282459008745        0.17671932765925
C            0.86824448204887        3.12841727334300        0.02056568974469
C            1.92523020182697        2.23624861636321       -0.03229300493980
C            1.39361698569456        0.93956068201038       -0.01740750269654
H            1.38496771748860       -3.50656176837916       -0.35520312674829
H            2.86423790215319       -2.68607578507335       -0.19617703030548
H           -0.31568081975475       -3.38000125220358        0.89071272645972
H           -3.92735918792200       -2.82303492844211       -0.72878693296026
H           -4.27609240167382       -0.47339613860625       -0.21582365250291
H           -2.57886653086969        1.07260740069896        0.16863675031065
H            0.94296473507122        4.20074031819483        0.02711998458858
H            2.96881611742656        2.48367226241984       -0.08177142591670
