26
 energy: -43.236689069443 gnorm: 0.000959737199 xtb: 6.6.1 (8d0f1dd)
N            2.84351698817264       -3.34554723922436       -0.00614099961094
C            2.07637336493785       -2.49260849729914       -0.00136905520546
C            1.09958256859481       -1.47547727385114        0.00071001311161
C           -0.25833614236973       -1.82048959258140       -0.00104158467772
C           -1.29374344669318       -0.89193408029432       -0.00047178472990
C           -2.60252850512368       -1.42184768251631       -0.00238354662982
C           -3.83966634569919       -0.82683162937616       -0.00276075348986
C           -4.15650312918633        0.53580892400791        0.00092860853336
C           -3.28573763384696        1.59941687239905        0.00526308265334
C           -1.88914241885960        1.58346084234855        0.00511151448321
C           -0.97204834595036        0.54406001033752        0.00096522297212
C            0.40297633105057        0.88456369130154       -0.00121653435972
C            1.09479249266580        2.08984668997899       -0.00863757708093
C            2.47080212719948        1.74336448943453       -0.00955211951617
N            3.51481759015824        2.60583316679423        0.04003144143089
N            2.67218129584265        0.41943339779390       -0.00461912971997
C            1.45012257450757       -0.13209515638583        0.00133283104132
H           -0.50521646207540       -2.87302102798084       -0.00254228653140
H           -2.62427371465820       -2.50658182345454       -0.00437587740650
H           -4.68691781697067       -1.50104937267289       -0.00553280469861
H           -5.21268461917973        0.77442538949277        0.00076185912652
H           -3.73440613601543        2.58507712854828        0.00894650225790
H           -1.43753773547223        2.56772156643845        0.00912542275791
H            0.71596117385079        3.09371215140590       -0.01178595025995
H            4.42423084324997        2.20666271624232       -0.12045976349147
H            3.36868598527029        3.56085332591298       -0.23665976455982
