28
 energy: -52.273587078416 gnorm: 0.000554008327 xtb: 6.6.1 (8d0f1dd)
N            5.79382388818969       -0.10072950873904        0.78432735563554
C            4.68972324045734       -0.32135003728563        0.56185731475463
C            3.34148255675229       -0.59697203923078        0.29066093351387
C            2.83441261801000       -1.81968002657477       -0.15782111844448
C            1.43717970181567       -1.68952339930659       -0.25586743666290
C            0.45017474577896       -2.59461205260374       -0.59963384636908
C           -0.87618404915513       -2.21406166221570       -0.48898353996094
C           -1.26844045308545       -0.92927025581024       -0.10249012087446
C           -2.62542252550866       -0.74097359999232        0.27195272031383
C           -3.44787270399674       -1.88868334827045        0.37265189425218
N           -4.15946076378086       -2.78362434450716        0.46976430928480
C           -3.26705727744516        0.43806955150035        0.66225022731439
N           -2.93738546194511        1.67827336104162        0.42308061355742
C           -1.80678235373769        2.14104993257308       -0.08290246580716
N           -1.89091314331477        3.39948562959736       -0.54801272047403
C           -0.52644387238545        1.49166904787258       -0.06670190387004
C            0.53334364680787        2.39484167908784       -0.29622861617164
N            1.29152327648227        3.22382876913488       -0.54241583073738
C           -0.24751070260181        0.11826250374385        0.03044392515119
C            1.08751454586543       -0.33164967894579        0.10182338967181
C            2.28107972759735        0.31772055816322        0.44965789727629
H            3.40770148024649       -2.70024318513159       -0.37859574841802
H            0.70159927680550       -3.60302956379051       -0.89252603573084
H           -1.64894747492677       -2.94809405147598       -0.66291008047131
H           -4.23377760935624        0.33439949208229        1.14606701371306
H           -1.07947409040063        3.90344618405889       -0.86287420932352
H           -2.77695191009761        3.86887740685579       -0.46999140143599
H            2.39837096102936        1.31287531956877        0.83295940491267
