29
 energy: -51.996385472740 gnorm: 0.000849400862 xtb: 6.6.1 (8d0f1dd)
N            5.46862859333445       -0.48868812385214        0.71184772091371
C            4.35550279667086       -0.27890537782703        0.51899861691487
C            3.01725023318437        0.05297432195688        0.28387014307088
C            1.92214434124907       -0.80404906316931        0.28617542516042
C            0.75284423845724       -0.04697145714437        0.03391437685641
C            1.16623180425611        1.33577202662088       -0.10418873703918
C            0.21903659016765        2.31453025908251       -0.32762286457635
C           -1.11679823941762        1.96388347749402       -0.30779562643963
C           -1.56499237112509        0.64813149307402       -0.11209174517454
C           -2.96907933237324        0.47747498997872        0.08855254694521
C           -3.76010493605999        1.65311343873620        0.10773839572758
N           -4.46416072149998        2.56001491163557        0.13156642524795
C           -3.72371965093604       -0.66001432148364        0.36944106945628
C           -3.34907265146305       -1.98934803971218        0.32757186130906
C           -2.10727202870980       -2.48736657062285       -0.04400869379601
C           -0.91610019765295       -1.80879691725759       -0.25179333782730
C            0.09279364746488       -2.66007482878044       -0.76450567606374
N            0.80699475844921       -3.41754688538874       -1.25005649993488
C           -0.58804921746962       -0.42165804631859       -0.07402027786539
C            2.57366910594253        1.38486543071464        0.02495048770322
N            3.36961629575213        2.46457452480661       -0.06924037801419
H            1.98016865367065       -1.85414596702856        0.49751240382481
H            0.49827433703933        3.34697696048881       -0.48199006308567
H           -1.85666365223462        2.74092204585637       -0.42519400321897
H           -4.76370261119728       -0.46576733987717        0.60734741098871
H           -4.11914170884034       -2.71838629293876        0.53732034354817
H           -2.05150401804393       -3.56080622913501       -0.18764606174750
H            2.97599493651587        3.38108433635663       -0.18439569836387
H            4.35635581446913        2.37223944513454        0.10142972647994
