24
 energy: -39.786821478483 gnorm: 0.000599315318 xtb: 6.6.1 (8d0f1dd)
N           -1.50823508980663        3.80380356078507       -0.00072168461682
C           -0.92659764318102        2.81322875161049        0.00036716521538
C           -0.17445245205658        1.61936980843782       -0.00021474550785
C            1.21847878166506        1.75692617356586       -0.00051628492397
C            2.00551142936184        0.62973738630172       -0.00055625793683
C            3.39899004283545        0.42874926906303       -0.00075412589068
C            3.63373864372042       -0.94189490680100       -0.00061444525001
C            2.41904952797714       -1.62800992080449       -0.00031462242379
C            1.38043431686745       -0.68201247436204       -0.00028366751305
C           -0.00639928245066       -0.85413587866473       -0.00004012593524
N           -0.41393285293450       -2.12567209805839        0.00015960629139
C           -1.61221940949508       -2.63470632126646        0.00045896645178
C           -2.87652085758912       -2.03392764994112        0.00069776998349
C           -3.14113718139597       -0.67534144278795        0.00061890847952
C           -2.23572268227218        0.37425344413988        0.00030353883884
C           -0.83386513642025        0.36467409996254       -0.00001217488482
H            1.65007395290292        2.74844065030392       -0.00062833695612
H            4.14292154820184        1.20383100554938       -0.00096604319982
H            4.60481075270991       -1.40376438159229       -0.00070294562874
H            2.28447270666498       -2.69243291465609       -0.00012124026083
H           -1.60070708816340       -3.72280179304991        0.00055401831171
H           -3.72532804451491       -2.70443810852823        0.00096407694263
H           -4.18581324580582       -0.38938774266523        0.00082520724643
H           -2.68032756222088        1.36339743875823        0.00028852376740
