24
 energy: -43.791554639246 gnorm: 0.000849941687 xtb: 6.6.1 (8d0f1dd)
N            5.35943765648735       -1.35532511567758        0.55274884145435
C            4.33429591192157       -0.85686057208824        0.41202740829724
C            3.07805889739995       -0.26179892355547        0.23636467978225
C            2.84404487895079        1.05082375548353       -0.17400025403144
C            1.44974993474950        1.24061274500165       -0.21153536450484
C            0.64038452836377        2.28389129714066       -0.63085784285499
N           -0.67367398310234        2.26945249700641       -0.49152162238352
C           -1.28392450705089        1.20296815512320        0.00789470347000
N           -2.50460748872775        1.39157835717639        0.46895191844158
C           -3.42421492707108        0.52577118430835        0.77145023115383
N           -3.61196458704314       -0.69266338258143        0.31062293556788
C           -2.65224084653961       -1.48351944351197       -0.14686954978936
N           -3.07485497624109       -2.62825022336710       -0.71386053405994
C           -1.25071248502249       -1.30151196786463        0.02789980679828
C           -0.58315824285856       -0.10200246807589        0.14942674204305
C            0.82682329580671       -0.00654430332337        0.18456819733377
C            1.84076356957828       -0.92029094077132        0.44284488816286
H            3.59293501216267        1.77937362670563       -0.42130418243585
H            1.05221809380554        3.18894267201415       -1.06055261737263
H           -4.23561096524989        0.90684895794025        1.38515882530524
H           -2.43018204657452       -3.33285588973741       -1.02209957136838
H           -4.06445039692840       -2.78301888915856       -0.79924699946465
H           -0.64081966546612       -2.19332799936361       -0.05770948817611
H            1.73539510984971       -1.93830846492368        0.77065583663134
