27
 energy: -46.949180272684 gnorm: 0.000750892187 xtb: 6.6.1 (8d0f1dd)
N           -2.88622926317022        2.90905217080770       -0.00040406141110
C           -2.42339360846957        1.85609665811440       -0.00298830775541
C           -1.96791364953727        0.51925348191588       -0.00814966878348
C           -2.98131357533162       -0.47750561821253        0.01491427359529
N           -4.26466577480193       -0.04992143356146        0.06048521530041
C           -2.75902999472753       -1.85489997919663       -0.00720109496985
C           -1.54093472226814       -2.53118591958683       -0.04681298651916
N           -0.30238656682443       -2.13442438882627       -0.04446667629480
C            0.17680776522543       -0.87769835797205       -0.02117319223799
C           -0.56312358630608        0.38580964475823       -0.02617147474444
N            0.05732531047335        1.57588152491443       -0.03720342400361
C            1.37343432007140        1.66721501869647       -0.02528595582795
C            2.18723846513336        0.55586976543477        0.00595232390432
C            3.59267278594391        0.34526658149139        0.03288067151807
N            4.54431492750666        1.30667754856165        0.00418446016779
C            3.81388565686403       -1.04875430469830        0.04180399527742
C            2.60190723695858       -1.70763905470847        0.02442279677631
C            1.56273824006096       -0.74531045792824        0.00376523100891
H           -5.01903068008918       -0.71208492826875        0.04867840362708
H           -4.47280644762942        0.93409433498132        0.04882071481987
H           -3.64642276505336       -2.47549698484573        0.00288164320444
H           -1.62103174351691       -3.61695887001119       -0.07861413428738
H            1.75828292155266        2.68101987936906       -0.04060863636236
H            5.50142981761183        1.05340001341721        0.17737953616995
H            4.27829686641377        2.26433920338140        0.15134643473904
H            4.78489564516399       -1.50990457458812        0.06065359077297
H            2.44887916844572       -2.76952948173930        0.02717704501565
