28
 energy: -45.881564499787 gnorm: 0.000652628439 xtb: 6.6.1 (8d0f1dd)
N            4.07671921068468        1.30993470752244       -0.13488685821103
C            2.86363028263797        0.68079205698251       -0.06478797889526
C            2.87932806429701       -0.72331833131153       -0.00250445211428
C            1.76900650111493       -1.55984451461212        0.07053028305064
N            2.00364259955339       -2.91425431949473        0.10612394182604
N            0.47363417813765       -1.26857623690834        0.04033731933231
C           -0.10227442060678       -0.05710992359733        0.01942894576568
C            0.54391576142646        1.26251484335518        0.07831315993299
C           -0.26468126643278        2.40199392462069        0.17529251194705
C           -1.64928572805705        2.37242898533426        0.15642618724561
C           -2.28514438664900        1.15275904118331        0.03712182619509
C           -3.64662116169305        0.76025832297971       -0.04506481635241
C           -3.71383703381032       -0.61266827894961       -0.16060526158954
C           -2.40085704227561       -1.13486822824094       -0.14362029106356
N           -1.98991588854763       -2.41085231816642       -0.20044072154796
C           -1.49522067896526       -0.03987796784133       -0.02322263000816
N            1.85578976893869        1.52622479737088        0.00941762102473
H            4.88447725928640        0.80207808432334       -0.44830592010428
H            4.04493157120973        2.29993986771879       -0.30861257557083
H            3.85176232522826       -1.19984664544608       -0.00604117814119
H            1.22549424642599       -3.49233932081968        0.37532957847758
H            2.91506463228071       -3.23132794233695        0.38741567637502
H            0.25415730783852        3.34642280716745        0.24296820567735
H           -2.21203066051139        3.29354363453395        0.21706402021124
H           -4.48599464074595        1.43205570644390       -0.02108696606945
H           -4.60996030880770       -1.20074196693040       -0.24614780886941
H           -0.97764834943515       -2.50355286246592       -0.24224532630154
H           -2.61898138062269       -3.15512094741495       -0.44471500602238
