26
 energy: -47.235202191031 gnorm: 0.000929490957 xtb: 6.6.1 (8d0f1dd)
N            4.06210843688905       -2.37853326882745        0.17281641610437
C            3.20521029434760       -1.61299932027260        0.15365963481208
C            2.20560287783118       -0.61978119162942        0.11728344417877
C            0.88262628513985       -1.01771985755383        0.14838230706966
C           -0.29781429633260       -0.26991410763426        0.04612625196014
C           -0.41545637663961        1.18483187107963        0.06654470182295
C            0.67701089981082        2.00367258944732        0.37230327449384
N            1.96895695192092        1.82402856023736        0.26475422264076
C            2.66198619880524        0.73544517653754       -0.01028463669175
N            3.94011437200888        0.94857724522405       -0.36221623123602
C           -1.70297066273352        1.79083202385879       -0.06435602781679
N           -1.81970277367726        3.16376672087993       -0.09332939239806
C           -2.86985790344870        1.03371432329684       -0.12520987895050
C           -2.79000321114220       -0.34452269150967       -0.07566422603309
N           -3.73050017162774       -1.30084668258701       -0.11180816436481
C           -3.02464676408152       -2.43391618349014       -0.05382803199382
N           -1.69530610607559       -2.32583078391553        0.01846442313877
C           -1.48844943924993       -0.99676729912181        0.00733138271660
H            0.70224227055889       -2.08586112214946        0.20624863325095
H            0.44713856146099        3.00459709218438        0.73000210220807
H            4.27963640003804        1.89500516484247       -0.39266005568828
H            4.57600055991719        0.17985988847525       -0.49408763074988
H           -2.73750606498489        3.51248840271984       -0.31824297535195
H           -1.06267209492184        3.70634748415590       -0.47070352587316
H           -3.82901338064027        1.52360712346632       -0.20957945043388
H           -3.50623820657341       -3.39503717961657       -0.06458292081440
