28
 energy: -51.474648692521 gnorm: 0.000716208224 xtb: 6.6.1 (8d0f1dd)
N           -3.44695250684492        2.61486690089705        0.04765363890972
C           -2.77758142675441        1.67917768462567        0.00939894417618
C           -2.02875148009925        0.48605569301108       -0.03061748099481
C           -2.81551823955604       -0.68161829038562        0.15643758490991
N           -4.07708479571829       -0.54998899300604        0.61643995906829
N           -2.50067557544780       -1.93377356128281       -0.16148840690146
C           -1.31991672156766       -2.40884827759684       -0.43887579773874
C           -0.04198870310345       -1.85439965562732       -0.27806148677573
C            0.97287468990731       -2.80980182568876       -0.52257999402087
N            1.70632215007317       -3.65395264637120       -0.78231450978525
C            0.32101086597711       -0.50938362408859       -0.02689827568733
C           -0.61834033342440        0.61122704939034       -0.15433125074531
C           -0.11196030707742        1.89730494499447       -0.32783287593732
C            1.24201745361643        2.22679329156769       -0.22736410559017
N            1.66152120854200        3.49035238797403       -0.41080266731158
C            2.12942900046282        1.19109305341538        0.11864074633061
C            3.48914585386297        1.12904831103149        0.41049198715297
N            3.86896620736089       -0.12818871880946        0.71687413868305
C            2.80898045261050       -0.90539229420602        0.59430767398238
C            1.65176303260899       -0.16344578034902        0.21506405593786
H           -4.48487779733133        0.35427964296079        0.77976424369416
H           -4.65225962681236       -1.37434314284037        0.63737997792377
H           -1.34861219307620       -3.43990954203718       -0.78209343052705
H           -0.81101726481269        2.70225577656925       -0.50582698105935
H            1.00297969702155        4.22023998291310       -0.61925668509583
H            2.63049327864883        3.72352248981288       -0.29173724731970
H            4.21147785870325        1.92550387480970        0.42826396325512
H            2.87881889483071       -1.95108560748392        0.82321654296651
