29
 energy: -50.390354201913 gnorm: 0.000827953062 xtb: 6.6.1 (8d0f1dd)
N            0.94857609378655       -2.95989529729835       -1.02744332119692
C            1.17064653470962       -1.89811987558724       -0.63037667166279
C            1.47415585496161       -0.62011368743194       -0.14972197594194
C            2.85495417239166       -0.31346896075097       -0.09835855862747
N            3.72894590724126       -1.29992502810933       -0.44315819262798
C            3.41062277874189        0.86447763113310        0.42181781395008
C            2.70862391899038        1.99564631653399        0.79570222432100
N            1.50530741895106        2.37101614464709        0.46026424732108
C            0.48518239389621        1.69610236996769       -0.03075715509787
N           -0.49424056569390        2.43737585699537       -0.54025008881341
C           -1.71320897254006        1.93733628738923       -0.65143543191019
C           -2.03378607200015        0.69216071744233       -0.16128599480489
C           -3.26542029753681       -0.01316011454230       -0.02167488720294
N           -4.49226207382939        0.50060920092620       -0.27010357057429
C           -2.97960882633491       -1.28535340103067        0.46915395312053
C           -1.59576532373293       -1.43588884337419        0.61670555309696
N           -1.02116912786082       -2.50717896443051        1.21065853871728
C           -0.96221706657195       -0.20939606889041        0.21470655548775
C            0.34892673593424        0.23029282238349        0.08661000340062
H            3.39332452954338       -2.14157989611767       -0.87915352686083
H            4.70667017819072       -1.08406961119188       -0.51593184754686
H            4.48193187818975        0.86338154441316        0.57514933177315
H            3.24568071162911        2.74537060745198        1.37040359954657
H           -2.44716402676763        2.60032556592307       -1.09480983718820
H           -5.28248633775485       -0.11954207500411       -0.30278915465684
H           -4.56124752457251        1.37024981732555       -0.76822785622100
H           -3.70653253235588       -2.04083716119256        0.70596708725992
H           -0.04201341220326       -2.68804156398426        1.06501494939334
H           -1.60117031560215       -3.32277349999627        1.32429132774696
