32
 energy: -54.352988637543 gnorm: 0.000862596645 xtb: 6.6.1 (8d0f1dd)
N            4.77854329023903       -1.55504808997654       -0.47964365917597
C            3.83040440743284       -0.91993527710493       -0.32649971212292
C            2.68189855078098       -0.13024659001250       -0.11803998880744
C            2.93980315768923        1.18089923275842        0.34293643671871
N            4.20419361062153        1.48136556571332        0.73550224286953
C            1.99738118933387        2.21750792247550        0.35123196334170
C            0.65728621177872        2.16386412316183        0.07137659709579
C           -0.23587220043702        1.08529044010001       -0.07413702662474
C            0.12764443814039       -0.31512617946110       -0.05425831250399
C            1.45099565038587       -0.76621123187609       -0.39404192400106
N            1.53812645127919       -1.93684612632802       -1.06122059158415
C           -0.88139688280729       -1.28086571061823        0.16514780531931
N           -0.55941737685929       -2.63729141098630        0.36049569683500
C           -2.24205402135693       -0.92812630639397        0.17244658856593
C           -3.21316528738211       -1.91435999878121        0.43123478672095
N           -3.98361703097060       -2.73565864456140        0.66140991523913
C           -2.63244109133195        0.38463217127763       -0.07633171533069
C           -3.87953607533640        1.00058633788023       -0.18208348782688
C           -3.65307780395916        2.36166715342046       -0.35213811502023
C           -2.27834005239300        2.62418550625265       -0.34183790270802
C           -1.60110488883383        1.41471164188719       -0.18382874107189
H            4.94501047106204        0.81114289607055        0.61729299719931
H            4.45183868841275        2.43720653512483        0.91914458059248
H            2.40059644987747        3.19566321013279        0.58465250631926
H            0.16613743400424        3.12703109338248        0.06143711390178
H            2.43936947245639       -2.33067495323234       -1.27469357912663
H            0.71255892346359       -2.50466281708551       -1.17621607146607
H            0.23047398896901       -2.79585307178955        0.97295582462487
H           -1.36255861863889       -3.18296833452179        0.64855366227117
H           -4.83206456952638        0.50653031827752       -0.13734765926558
H           -4.41815039456613        3.10766005490487       -0.47818247636136
H           -1.84736388142698        3.60090396930871       -0.46587927371755
