30
 energy: -50.929840801388 gnorm: 0.000761800126 xtb: 6.6.1 (8d0f1dd)
N           -3.58105920177056       -2.31693890239610        0.55801549533777
C           -2.89189913796374       -1.41417993504439        0.37966499536967
C           -2.08609907524782       -0.27460638653787        0.16371627665294
C           -2.76771896675350        0.84153533115865       -0.37711586443549
N           -4.01568083452266        0.64766259684113       -0.86064076492205
C           -2.28863615433825        2.16010515071775       -0.33055630006756
C           -1.04465782751077        2.61171286270608        0.02405120170490
C            0.17628996199299        1.93178219241942        0.18857302124026
C            1.32860963464092        2.75428295455268        0.28043969799713
C            2.60145769195276        2.25697530706945        0.22640369842838
C            2.78715644494208        0.88916240155038        0.02580702138922
C            3.93426341950072        0.12176343446076       -0.18785779067238
C            3.54509426070731       -1.19557628967415       -0.38616639201980
C            2.15028235641800       -1.29986946064267       -0.25921740501041
C            1.43083908694425       -2.46423272474587       -0.50539526969827
N            0.83316905573327       -3.42980818980732       -0.70759347024273
C            1.63699127655721        0.00588515597653        0.01431265580759
C            0.34324662073880        0.50661334465691        0.19656429668584
C           -0.73374637445871       -0.39893558419813        0.52753775372857
N           -0.39986223767877       -1.46546447585845        1.27292782305638
H           -4.43649438593545       -0.26544954269089       -0.84522851088451
H           -4.56437782845571        1.42913883750943       -1.16970114762154
H           -3.01859964929122        2.91656490805514       -0.59234160636510
H           -0.95231198868549        3.69124608586818        0.05994581287252
H            1.17705005090386        3.82079474856903        0.36208466322490
H            3.45492350626227        2.91588265040329        0.29306740953640
H            4.94057771557128        0.49508909103980       -0.22556249448997
H            4.19470258945440       -2.02246204467852       -0.61251832425015
H            0.56990810475269       -1.64188387254178        1.47860567703732
H           -1.04907616725980       -2.22580079633913        1.39964950221166
