28
 energy: -41.873697317467 gnorm: 0.000566670790 xtb: 6.6.1 (8d0f1dd)
N            4.40328513627904        0.48952515853436        0.37914536501584
C            3.08851747433385        0.14810542531941        0.18771889811556
C            2.77526331447474       -1.21805908877024        0.20130897237687
C            1.56255829638213       -1.80991318761624       -0.04001079589514
C            0.26040475521131       -1.28985030014451       -0.15065230571986
C           -0.76170017686644       -2.26103209260415       -0.29413756261942
C           -2.09576037340401       -1.95722581287384       -0.25055206749466
C           -2.48308347549123       -0.64546477817426        0.00529705418731
C           -3.72926214769298       -0.06069434911097        0.20598701219925
C           -3.52504959361243        1.29418376441005        0.48030506563991
C           -2.17180323685119        1.58946308580977        0.41039873924494
C           -1.46943915488069        0.39913183620354        0.10766842469846
C           -0.11180015933031        0.10178890745521       -0.07704887581404
C            0.82696564743128        1.16709461487549       -0.32008832496073
N            0.28904189747521        2.35060525919419       -0.72572872856109
C            2.20605743021890        1.16899090988329       -0.15369178142283
H            4.62744173872507        1.45303076327179        0.55767809706821
H            5.01286665485547       -0.19416226006139        0.79323686344895
H            3.61222469814113       -1.88390347684076        0.37582461579279
H            1.59760406182123       -2.89365877181984       -0.07053381731617
H           -0.45793900388455       -3.29051925864478       -0.42432092470846
H           -2.84067944414932       -2.73156578746539       -0.37210094395998
H           -4.67592484358885       -0.56942193895753        0.18487233775077
H           -4.30016266621154        2.00442212070731        0.71431806905075
H           -1.74940631813822        2.54557206960933        0.66428300745393
H           -0.66377570982520        2.34043482546027       -1.05498483210477
H            0.90507239996934        3.06091840861658       -1.08230716350491
H            2.67316990050884        2.13969928943353       -0.29420867156171
