31
 energy: -59.441363943014 gnorm: 0.000696410461 xtb: 6.6.1 (8d0f1dd)
N            3.27683783346812        2.40273980495010        0.89671437510871
C            2.70828061957837        1.49260098933528        0.48073386848674
C            2.10982401517157        0.27284468731604        0.10467295862123
C            2.98909628901408       -0.84367770622670        0.19751113106296
N            4.20539985629358       -0.66884584773431        0.74676090164324
N            2.79899827692687       -2.06492248879792       -0.29073388066265
C            1.66674096104213       -2.61824283621833       -0.62889403789964
C            0.34831449792469       -2.20629470560496       -0.40972233440063
C           -0.59153007612905       -3.21566421973745       -0.71512066751733
N           -1.27772385957474       -4.08654794481680       -1.01470743645630
C           -0.12493403717721       -0.90674019934212       -0.08162904020082
C            0.71785063919632        0.27955459449895       -0.15812665221206
C            0.09862699419361        1.52478770175183       -0.39967565241508
C            0.84180827020322        2.62523312826646       -0.86535646684182
N            1.30791557259168        3.55722846121840       -1.35276277571668
C           -1.30085168158553        1.73208896846785       -0.28209952063517
N           -1.83973444525138        2.95005580347023       -0.51763283617570
C           -2.05497351298765        0.64325951142975        0.14967267078422
C           -3.40562781935939        0.46005466524439        0.51599288612282
N           -4.39107043277658        1.38557056426157        0.62268969807664
N           -3.66887612385570       -0.84757573454503        0.76469329427067
C           -2.55278042412482       -1.52189145460159        0.56590606667597
C           -1.47361197396048       -0.67478284355032        0.19017946357919
H            4.84523817198068       -1.44381568571803        0.72097622184999
H            4.51786523593224        0.23756403722898        1.05076381555551
H            1.79124256989513       -3.59916953817630       -1.07998736504779
H           -2.82767321514558        3.01434021223176       -0.69321716379101
H           -1.24832613048269        3.65797847850575       -0.92612270302571
H           -5.24795526309032        1.03019019144826        1.01931463215397
H           -4.14037883680067        2.32557015893972        0.88413487988269
H           -2.53027147186066       -2.58038731711085        0.73883988090856
