28
 energy: -45.885811322108 gnorm: 0.000433960863 xtb: 6.6.1 (8d0f1dd)
N           -2.33642899564975       -2.72219117814951        0.77902026293018
C           -1.93691126573913       -1.48258195848495        0.36966036557104
C           -0.55175553368207       -1.28958436840037        0.18792237194402
C            0.14331091111480       -0.09693499517316        0.01067480681852
C           -0.51328195455419        1.21422221447468        0.11914890782766
C            0.25865298258495        2.33382526444248        0.43797370491781
C            1.64197359091809        2.29096634656629        0.49880536938146
C            2.29883543191427        1.11338366677031        0.20310970785608
C            3.67456945508582        0.78602013328700        0.11561005854231
C            3.78417719031435       -0.53743737470940       -0.24733680838270
C            2.49008202755246       -1.09034306138701       -0.38367896549264
N            2.23400031264148       -2.38647106376470       -0.75969787606667
C            1.54618104778624       -0.08058610363995       -0.08251252159643
N           -1.80205404598362        1.44381474478654       -0.13342610376110
C           -2.78482804662982        0.59602266571616       -0.32085418098676
N           -3.88365720549564        1.11174451002093       -0.93259867203363
N           -2.93765085868857       -0.66732392677420        0.09319430297370
H           -1.67369339775265       -3.33368924803912        1.22183039984715
H           -3.30619251692230       -2.81929810373537        1.02621659227521
H            0.05199860263821       -2.17212196673113        0.35709700781138
H           -0.26762312038091        3.26369622737136        0.58886583652443
H            2.20005511245492        3.18835652335651        0.72806110538141
H            4.48705618199207        1.46545037118217        0.29868454139132
H            4.69746814609407       -1.08025351266490       -0.41664427381455
H            3.01479439402050       -2.86536499801468       -1.18410621659276
H            1.35175508322284       -2.54223398371964       -1.22507940390727
H           -4.73970823418864        0.59009817589494       -0.86762622714920
H           -3.92461409256855        2.10941923711911       -1.04552122821008
