30
 energy: -50.127704287188 gnorm: 0.000864249659 xtb: 6.6.1 (8d0f1dd)
N           -4.20981544320736        2.40794665398487        0.24200731898016
C           -3.27033539428716        1.75146883229933        0.16574052624364
C           -2.10458309654392        0.96800942583658        0.05672530961280
C           -0.87874011830941        1.58905746218842       -0.09855057941996
C            0.32195122941009        0.86058358059239       -0.20993744598624
C            1.54376712346474        1.60659243389250       -0.34136567742069
N            1.50600129611469        2.82805025492486       -0.91406330716039
N            2.70953462893486        1.29632302962880        0.18401215029357
C            3.19990524969306        0.10908313524309        0.47456710492970
N            4.35512582484950        0.12356275708311        1.18499735310056
C            2.74981289782371       -1.10837067066136       -0.07064667780149
C            1.46862894618305       -1.36937458831284       -0.50969468500242
N            1.24654212333365       -2.50441148703167       -1.20422055479106
C            0.29233495717508       -0.56484640212111       -0.20886949637287
C           -0.93482620066348       -1.20701680358776       -0.00318591591324
C           -1.30966070872246       -2.55523915767409        0.16964419460738
C           -2.68004950782096       -2.60292079212826        0.38044562197450
C           -3.21837783544932       -1.31319585688173        0.33312583527114
C           -2.16938685523696       -0.43148490157073        0.12656159506846
H           -0.84578784909339        2.66907493051221       -0.07282375100696
H            2.34887678610635        3.37387040378228       -0.93233434871396
H            0.66987171260583        3.17801460328070       -1.34424590241351
H            4.74624632940320       -0.73302918436427        1.53078424695574
H            4.64336921202143        0.99360152639890        1.59552440061167
H            3.47833212943307       -1.90537753247049       -0.15334857310842
H            0.30409327509575       -2.74756390247247       -1.45850427810058
H            1.98867632046150       -3.16442538652235       -1.35342722084630
H           -0.65930521056489       -3.41069438304020        0.22987190523660
H           -3.24479579501612       -3.50282473723719        0.55568289033611
H           -4.25093942889301       -1.04667173027146        0.46343980653610
