23
 energy: -39.263824000533 gnorm: 0.000695742741 xtb: 6.6.1 (8d0f1dd)
N            2.52766756398811        1.98634349764459       -0.64728195971466
C            2.08911409595236        0.83080024125441       -0.12297109373828
N            3.03552337731258       -0.00869958345024        0.24056497596927
C            2.98992502089777       -1.30129729676897        0.41957096837156
C            1.98890568902354       -2.18557864686381        0.01508255079082
C            0.68066426607022       -1.84381394576894       -0.25879219849983
C            0.03014280073425       -0.60749532295338       -0.08498387902602
C            0.67178601837388        0.67229267829999        0.09261906352890
C           -0.11199348423794        1.79734852060026        0.36371716033301
N           -1.43256963701476        1.82393236610618        0.43476570985009
C           -2.06718685009825        0.70041588564807        0.19655273731631
N           -3.40274611666506        0.53134075374171        0.17834060067350
C           -3.59519665475983       -0.75556642628529       -0.07454907412924
C           -2.40536913464482       -1.49145443187753       -0.24071992281320
C           -1.37802551245374       -0.57362090737318       -0.08036505084199
H            1.88743595059193        2.71703088071890       -0.90220828523877
H            3.51868290952565        2.12679293423092       -0.74898161002956
H            3.89344085804056       -1.71230862756416        0.85819619384928
H            2.24829597440134       -3.23513303156448       -0.01478555547242
H            0.01763634914921       -2.66235552416566       -0.50975505719993
H            0.36477137112551        2.74820250512445        0.57141279814065
H           -4.59644855592210       -1.14459124837569       -0.14326518859052
H           -2.34411955409043       -2.54313474055822       -0.44845027872902
