24
 energy: -44.573488499810 gnorm: 0.000895462591 xtb: 6.6.1 (8d0f1dd)
N            5.41955996733800       -0.62322583633879        0.28955817589262
C            4.28252852834997       -0.53538220481659        0.16578643949140
C            2.88313776820036       -0.42903178226911        0.00839912720664
C            2.10612874718390       -1.55596713370574        0.29538054772307
C            0.74397809445586       -1.71461701716907        0.13687314478944
C           -0.25699115878114       -0.75419228092779       -0.09414074742470
C            0.01593932994470        0.68722881309176       -0.10523864035773
N            1.17269622826438        1.24106958150324       -0.42874904372304
C            2.38026856120624        0.78788843325399       -0.50519072722973
C           -1.05198318309213        1.59237801583233        0.12868216838439
C           -0.74813729639426        2.96800709846907        0.24670212989955
N           -0.53468237248217        4.08817319135707        0.36202847314290
C           -2.38002366625531        1.17905708015359        0.19036674640149
C           -2.66798002149262       -0.16051718922439        0.00775136189024
C           -3.85219231558191       -0.92015908211051       -0.02844771276678
N           -3.59275570056426       -2.21858010118484       -0.20728638489770
C           -2.27037478540095       -2.36619384744956       -0.27351638605291
C           -1.60073639138129       -1.12936601080548       -0.14341559525836
H            2.65761571343795       -2.43309664056048        0.61485626481263
H            0.36769068814916       -2.71503636913396        0.30964821965025
H            3.09026560148468        1.47968569813480       -0.94815624926101
H           -3.16277780177495        1.90933549927940        0.33740175967950
H           -4.86255086386721       -0.57029601606746        0.07240542459582
H           -1.84561217674688       -3.33997816681159       -0.43524055938806
