28
 energy: -50.705141203498 gnorm: 0.000775668052 xtb: 6.6.1 (8d0f1dd)
N           -4.36282128432426       -1.88896595576701       -0.39848872084593
C           -3.34895276171582       -1.36493161987536       -0.25822923793979
C           -2.09550823442130       -0.74695748811527       -0.10799120885965
C           -0.94107381015702       -1.52119473071191        0.01650630763223
N           -1.06013054196993       -2.89342412041945        0.04623375091377
C            0.34927667862779       -0.91301330249960        0.14449851136011
C            1.42635807906382       -1.74614992086049        0.51915164687938
N            2.71072801330763       -1.60234090781809        0.38365767155593
C            3.32592297997629       -0.51799563817307       -0.11210211837042
N            4.54028774461735       -0.75588860741621       -0.63817381340992
N            2.96669814934060        0.74779739435898       -0.04083223985021
C            1.74866657910379        1.22765064997061        0.16976699828522
N            1.67238520666684        2.52821668512831        0.39869369344729
C            0.47626507669718        0.51690580459572        0.07219788176884
C           -0.68942359866974        1.26812163018082        0.01118660410795
N           -0.82032865894852        2.62324640726599        0.03398385445517
C           -2.12750244409281        2.86970959913758       -0.05627715413085
C           -2.90330198065759        1.70871965451956       -0.13204445571087
C           -1.99877138002036        0.65685308602814       -0.08735263833344
H           -0.29823302477359       -3.45064169528056       -0.29936682655246
H           -1.97971962950900       -3.25000597776244       -0.16569877714853
H            1.16344205872898       -2.69717238382702        0.97583670891227
H            4.92252918442702       -1.68274196518206       -0.58134984858502
H            5.11589089285370        0.02080570421941       -0.90926933690785
H            2.52727492098433        3.06017709703414        0.39745165780225
H            0.71076104793920        2.95028608042810        0.33970775874221
H           -2.48079351630965        3.88622251754880       -0.05601321615865
H           -3.97137676536483        1.65100627639233       -0.20504495635920
