27
 energy: -46.151396074221 gnorm: 0.000416338397 xtb: 6.6.1 (8d0f1dd)
N            4.61626932757680        1.28329886338701       -0.21645750188051
C            3.34180476315133        0.88885817900610       -0.00013376825323
C            2.33701289596434        1.87675648808881        0.02566891030405
C            0.97597977515497        1.67308734087532        0.04424214250510
C            0.22680920730601        0.49079812774793       -0.00135312550592
C            0.79261134278754       -0.86294363988902        0.02927099149518
C            2.13523404684681       -1.13742954567823        0.28717478832967
N            3.23178111444986       -0.41831913304562        0.23104883678982
C           -0.11247112986222       -1.96294952867953       -0.07387909545791
N            0.35222801282117       -3.26092878563881       -0.12084605578264
N           -1.43206397805837       -1.86653203588890       -0.09020111760039
C           -1.97067527941278       -0.66287889149896       -0.03104972959678
N           -3.27262850330458       -0.39693307172233       -0.00663614685943
C           -3.36313876844544        0.95145003102786        0.01054548225810
N           -4.58306867796238        1.54791073264891       -0.01577709845212
C           -2.11249294641909        1.59733309235740        0.00646682244555
C           -1.16848526633720        0.57527964780810       -0.01380235045564
H            5.33993728305552        0.58687820785404       -0.18301404697420
H            4.85426588534284        2.25050548011742       -0.33626858054020
H            2.68398493499358        2.90209418509661       -0.00114259505938
H            0.37437579848312        2.57363058789862        0.05471359453841
H            2.35833523353822       -2.16430739985570        0.56866581577022
H           -0.39540124577392       -3.91743556235003       -0.29060120105404
H            1.19933641559032       -3.44530700073864       -0.63135695216652
H           -4.65300307896808        2.50468907437608        0.28513881580850
H           -5.36502260432441        0.94440112178458        0.17593339516225
H           -1.96156637039374        2.66015901041171        0.01544846303185
