22
 energy: -40.326067283340 gnorm: 0.000759279406 xtb: 6.6.1 (8d0f1dd)
N            5.08569734472671        0.87275429715069       -0.15114211575722
C            4.01091551467613        0.47873301597514       -0.09610451142967
C            2.68388047795092       -0.01098615907781       -0.03538451434919
C            2.48601002403291       -1.38581969644927       -0.26090368458364
N            1.45381507026897       -2.06546249074093        0.15547476304027
C            0.24519499651713       -1.73851515181508        0.44826125969869
C           -0.42876046103177       -0.53772717171264        0.06025897059736
C            0.27506708947186        0.73085782570938        0.08407144282048
C           -0.52457839805455        1.90647447324983        0.04939936088411
N           -1.82515630865296        1.94553512935035       -0.04382081663598
C           -2.48886189450703        0.80784919356559       -0.09588673646443
N           -3.80506107196738        0.63493938945696       -0.08436564603102
C           -4.01410595538952       -0.68795379121209       -0.16449276057428
C           -2.84139810335491       -1.43950405379244       -0.16545324308632
C           -1.80075857552479       -0.50376748762473       -0.10801051630433
C            1.66098304265621        0.90938913320567        0.18937384302731
H            3.28273887168359       -1.97289110857054       -0.70227986634112
H           -0.33562483242309       -2.49778982864565        0.96117782468973
H           -0.02874478497709        2.86830203974711        0.05739399841734
H           -5.02169901163770       -1.06163100643130       -0.19980331112709
H           -2.75972188904300       -2.50603079981675       -0.24848138407828
H            1.98315166437865        1.93309033527641        0.34718433818742
