31
 energy: -59.453681322610 gnorm: 0.000646067058 xtb: 6.6.1 (8d0f1dd)
N           -4.79839654000302        0.22062834300910        0.27100603599555
C           -3.68047138479355       -0.04296349363313        0.20505318199966
C           -2.35392541655556       -0.46419278063714        0.13843056126030
C           -1.96702078359850       -1.84303409163073        0.17015124293635
N           -2.82886968482792       -2.87620389910815        0.24095178385632
C           -0.57041834768610       -1.92519395429768        0.06469265159530
C            0.13806151960733       -3.11756006507942        0.11432048709385
N            0.70181627928411       -4.12377096402703        0.13398477709289
C           -0.05364617336317       -0.58812642246069       -0.00620597483029
C           -1.19234024905035        0.30399093527660        0.04997898357956
C           -0.99681272939437        1.69250687794777       -0.03099851276930
C           -2.09660583365656        2.57286229155654       -0.00976637425120
N           -2.94871874473061        3.34254568083219        0.01561401874406
C            0.29604941985838        2.22486824204299       -0.09493324620449
N            0.43851825218347        3.58086862266678       -0.17094949249085
C            1.43717236063448        1.35653001709008       -0.06012706657444
C            2.72591533315528        1.91425020215502       -0.07663187807571
N            3.83061687170514        1.43395361989286        0.44829298821937
C            4.03682145604657        0.19053930718191        0.80337168998890
N            3.52475097127271       -0.86906949204341        0.23397129725803
C            2.37138714908374       -0.93614593859965       -0.38837646429772
N            2.23004919413400       -1.87373518753856       -1.32307181738923
C            1.22521901690777       -0.08007343652410       -0.07645208911850
H           -3.80082226124017       -2.69276899448258        0.42105782358568
H           -2.47757623759723       -3.80904268096725        0.37038452884787
H            1.30451443188167        4.01697988434389        0.08579449214676
H           -0.39552091455794        4.13031944250471       -0.03541229109058
H            2.84607014816358        2.93019835422391       -0.43948348862827
H            4.83368455534540        0.01779493989830        1.51733085240820
H            2.97754593359502       -2.53660192530764       -1.45603596847409
H            1.32183462877872       -2.09954703536690       -1.69371202881162
