26
 energy: -47.238128543805 gnorm: 0.000399799531 xtb: 6.6.1 (8d0f1dd)
N           -1.98475352059487       -3.70761620383603        0.19167076875538
C           -1.83174320142351       -2.57102572581290        0.14798658585418
C           -1.70955484455891       -1.16223632081749        0.08817808744664
C           -2.89793739208090       -0.44649009793547        0.31047702639571
C           -3.12152340057213        0.89679756260768        0.20542554220346
C           -2.15678083786765        1.87914371478995       -0.16101787239191
N           -2.61641308091709        3.09947196492517       -0.51742103320916
N           -0.84853387961894        1.78790828170042       -0.12989724789709
C           -0.04219921486227        0.74731067502265       -0.00937314156649
C           -0.39507366278365       -0.68349715656979       -0.09871757930972
N            0.52043855872257       -1.63438566811966       -0.25048416111741
C            1.82646120387209       -1.37525066792800       -0.20153288269774
N            2.64344748384651       -2.41417407756111       -0.42865398813939
C            2.29130533927573       -0.07743109573940        0.08329801328965
C            3.52919375523473        0.54321810120634        0.24500937456976
N            3.39423565638900        1.87136740998774        0.41875704589748
C            2.09922538951163        2.15197544035966        0.36325846851303
C            1.32466922398290        0.98709154550472        0.16193722025367
H           -3.75447962243710       -1.06289217881820        0.55962014426606
H           -4.12708452244312        1.25684754646341        0.37687628978859
H           -3.59420529679014        3.32213067239884       -0.49135562992581
H           -1.94367227059176        3.81824916399858       -0.71902275132796
H            3.63749229037891       -2.31818994546670       -0.33054728554425
H            2.23025022488590       -3.31655990859639       -0.59173648314327
H            4.50791677012381        0.09753891733183        0.24578584707759
H            1.74308382241817        3.15876553820352        0.47253748225920
