34
 energy: -62.604353363147 gnorm: 0.000922146791 xtb: 6.6.1 (8d0f1dd)
N            3.08326981728782       -3.97028892057547        0.57482563129268
C            2.59873657176533       -2.94242845631979        0.40252978694498
C            2.04228748929380       -1.66096686068570        0.19717628716199
C            0.67632071767075       -1.61560551971624       -0.00482485009817
C           -0.22320348885182       -0.55106774252175       -0.07463095118829
C            0.07250926136656        0.87445951618803       -0.03868127196205
C            1.36459697855185        1.38104590229366       -0.36050935760924
N            1.43753390359067        2.61986033272378       -0.88886942317835
C            2.62967066292313        0.74522355699782       -0.17732593775456
C            3.74531567499206        1.58692460631113       -0.36171662163167
N            4.66648644748597        2.26330737137867       -0.50498943771672
C            2.96123416371177       -0.57392884372927        0.18103349549502
N            4.25076433247439       -0.85657432649060        0.45794259157474
C           -1.00122272505709        1.77631542963664        0.18997784327908
N           -0.76757547795206        3.13792635460466        0.41980867659896
C           -2.34081186877780        1.35639876574476        0.18671572748234
C           -3.36710447034593        2.28045933002893        0.44558948407903
N           -4.19676420177850        3.04550374917861        0.66791250454518
C           -2.66426096296597        0.01480245574758       -0.05302610324437
C           -3.82617980128243       -0.72625382151922       -0.14566866569767
C           -3.39274303417274       -2.06266144405148       -0.29170838442361
N           -4.17174555835668       -3.16000124278179       -0.38803431625167
N           -2.04480737769017       -2.18566524292326       -0.28450554866231
C           -1.56998012418530       -0.94369806803352       -0.15460976492756
H            0.17652449746317       -2.57754383028720       -0.04488044714734
H            0.59349915004300        3.14476069145198       -1.05362047529633
H            2.32831030023536        3.01469575863218       -1.14024792610597
H            4.96024119942877       -0.14708282939789        0.37901471612455
H            4.52826021674907       -1.81008257059306        0.62328955227756
H           -1.60032717633165        3.62891544882866        0.72025881843034
H            0.02672446667871        3.34466241572833        1.00874661625440
H           -4.84020107072035       -0.38172168346975       -0.10791326391225
H           -5.15176724642596       -3.05714077196185       -0.58036293110180
H           -3.72154894981709       -4.03061810871724       -0.60965158853054
