23
 energy: -39.251119530154 gnorm: 0.000757021120 xtb: 6.6.1 (8d0f1dd)
N           -0.23705920807024        3.06632247968966       -0.11891498257046
C            0.18270706400609        1.75958207710062       -0.08515993231547
N            1.49703840843269        1.60142545872915       -0.11913956479353
C            1.98111975284338        0.37824288001578       -0.06377833393236
N            3.27520334489108        0.04476134173226       -0.05960446759784
C            3.30181017090833       -1.29273931423542       -0.03338873102497
C            2.03701927715042       -1.88413479612530        0.00205745757686
C            1.12700075572589       -0.82171791348357       -0.01385366821556
C           -0.26108459932878       -0.68185724553786        0.01075931358010
C           -1.06127452375030       -1.83468646190471        0.10896634418648
C           -2.42787539001733       -1.98285310816572       -0.03123548627392
C           -3.33836266695001       -0.94378522624917       -0.22864443339057
N           -3.18223854353291        0.31892133959943        0.07668312030925
C           -2.09562612964417        0.99896482169190        0.32886012410003
C           -0.75960696570054        0.69622929898142        0.02875708409030
H           -1.12168564708268        3.28534190275133       -0.54333692613057
H            0.51261924949366        3.71347475930117       -0.30878090507197
H            4.24838659067730       -1.80447338139486       -0.02990117673303
H            1.83523598806546       -2.93809398864644        0.02576139607809
H           -0.49604585468429       -2.75359164362377        0.20480182032122
H           -2.81896981449867       -2.99137102013048       -0.05623824071539
H           -4.33267841696605       -1.18842749284285       -0.58789780199837
H           -2.29617006976824        1.97881002444758        0.75353690732185
