32
 energy: -59.169264609495 gnorm: 0.000834077461 xtb: 6.6.1 (8d0f1dd)
N           -2.96563427694170        3.92009476878669        0.25440537397656
C           -2.50242049080992        2.87172843180137        0.17401019731410
C           -1.96450935894937        1.56816386063636        0.07823380850301
C           -0.59791818033009        1.49199650215162       -0.09072816400487
C            0.27976021537023        0.40450943742777       -0.09491249791868
C           -0.04969834194757       -1.00745726840678       -0.07427231823596
C            0.99625320603178       -1.92976923896377        0.10108807986025
C            2.33727848039654       -1.57740905303296        0.18669558896061
C            3.30952725461626       -2.57123963600239        0.40960400581267
N            4.09993928868001       -3.38580134390852        0.58420266562567
C            2.70887412239727       -0.23326932970396        0.04203013390475
C            3.89003233028668        0.48317766118943        0.03646376883959
C            3.49569314010219        1.83346083522260       -0.10043007883624
N            4.30802380576878        2.90520297616204       -0.20034394306242
N            2.15355583869000        1.98725563869056       -0.16859186749849
C            1.64245349620607        0.75522524897589       -0.09641289654572
C           -1.36273067785480       -1.52044201338266       -0.28425901237769
N           -1.47368976442042       -2.80677571237512       -0.68107923878598
C           -2.60662516772111       -0.85556132700534       -0.08018467903077
C           -3.74315771731696       -1.69061123453749       -0.13363774613745
N           -4.67871872305697       -2.36002137555999       -0.17643312330636
C           -2.90237201824059        0.49711801799715        0.16745540445479
N           -4.17885357666665        0.82984845797896        0.44611303998386
H           -0.07814003677921        2.44200409831950       -0.15800031765996
H            0.77157053522550       -2.97738322106560        0.24723197956584
H            4.89263092207410        0.11361461409383        0.11888482250838
H            5.28411026095380        2.80997461547786        0.01344741110012
H            3.88742687298321        3.81695031580221       -0.16819758082080
H           -2.38058638484596       -3.22818879340630       -0.79499304086948
H           -0.66149592713311       -3.34736021896958       -0.91526816021048
H           -4.43195406651772        1.79807564978710        0.55492362902270
H           -4.90050002985061        0.12860288992062        0.46721453986837
