23
 energy: -43.285759750994 gnorm: 0.000716454961 xtb: 6.6.1 (8d0f1dd)
N           -3.83175215338658       -1.29395331414409        0.70434442544664
C           -2.75239160705879       -0.79041049175898        0.09300047832307
N           -1.92071329230374       -1.70760258088838       -0.43729892989357
C           -0.65218849019193       -1.52702583239343       -0.61839005994825
C            0.16641030885887       -0.44638053816584       -0.19575484407380
C           -0.28742322941446        0.89727818154159        0.03036378672437
C            0.64494949916735        1.87105905665229        0.42115748816476
N            1.93922414728572        1.68695980408705        0.58741484685242
C            2.40224439611725        0.47603068942381        0.33850031005300
N            3.66542731306029        0.02637006106820        0.37427495739714
C            3.54862492693630       -1.25508910088634        0.04185214102211
N            2.31760578816537       -1.72162457198646       -0.22745375956654
C            1.54112970143003       -0.64602546401330       -0.05836396419268
C           -1.64948831385523        1.26875570311877       -0.26891896219041
N           -1.89657255312419        2.51116572514273       -0.70202307292781
N           -2.71504814330870        0.51845028257389       -0.07194688739567
H           -4.54174894484956       -0.67679576088629        1.05595103468140
H           -3.94701233947873       -2.29097275239603        0.74838446353116
H           -0.12599237032444       -2.36571430871062       -1.06358048677881
H            0.30555908035845        2.87361426738927        0.65637893126966
H            4.40769976012452       -1.89872942048311       -0.01839918293720
H           -2.85045703895412        2.78679214125493       -0.86372003261477
H           -1.15264081195378        3.17493910766033       -0.82347333664614
