32
 energy: -53.562046517567 gnorm: 0.000721798228 xtb: 6.6.1 (8d0f1dd)
N            5.67104241640189        0.78261868634040       -0.53575403464533
C            4.53860783127532        0.61220977558625       -0.40035010484073
C            3.17162128254206        0.36791091416679       -0.22994392098076
C            2.27758083252407        1.40275957969483       -0.51234241024527
C            0.91197224573027        1.43832807355146       -0.35720584975072
C            0.00629181603680        0.40033994963333       -0.04116758129699
C            0.39220080828033       -1.00996109095139       -0.00624223833464
C           -0.59430216335631       -1.98169043354453       -0.12549535401305
C           -1.96211944031969       -1.69935740291835       -0.15995936801724
N           -2.87390724212467       -2.72291727409741       -0.27716172488867
C           -2.35443820352297       -0.36745873415395       -0.05077705715167
C           -3.62464890990709        0.26041358578495       -0.03289072826699
N           -4.84319711070852       -0.36467312596476       -0.18862157841543
C           -3.43531219291965        1.62441121511252        0.20819689095607
C           -2.07042786615585        1.88973318932231        0.28904984351896
N           -1.52614520225765        3.12400222863360        0.52810006092170
C           -1.35755239040170        0.66446786587208        0.08108010736901
N            1.61879955473883       -1.49143445953764        0.23315439506950
C            2.79198648598472       -0.92513188939874        0.26434264635566
N            3.77846334690368       -1.69368737663067        0.79788335131407
H            2.73973673806167        2.31897639118914       -0.86502262313371
H            0.44614748719455        2.37623583140905       -0.62739871854489
H           -0.26963480710422       -3.01182838894997       -0.13554790617683
H           -3.76572247594416       -2.57297546566552        0.16741929517691
H           -2.49562062175484       -3.64877706720678       -0.14450157823360
H           -5.61551221298433        0.27112078773169       -0.32719042805410
H           -4.84769419540361       -1.13732858709391       -0.83826452858232
H           -4.21876661510605        2.35384649012057        0.31082984726536
H           -0.61066732028305        3.13637077044004        0.95104921984291
H           -2.16757946745010        3.81172510996828        0.89341090369840
H            4.74128188638057       -1.43075519169163        0.67509151744904
H            3.55393074365169       -2.64903103505368        1.01183571572509
