28
 energy: -51.480696163162 gnorm: 0.000782131684 xtb: 6.6.1 (8d0f1dd)
N            3.45210039463953        2.98419493739769       -0.01783629679812
C            2.91120327072913        1.97074603407389       -0.01498229656950
C            2.31202644088462        0.69208231658290       -0.00810152120735
C            0.93277093089246        0.64950979369066       -0.00143944255092
C            0.05213804736570       -0.44600744961895        0.00549252201818
C            0.46964659190651       -1.84479322015506       -0.00111677979763
C            1.78597987250718       -2.30482705402353       -0.01014757991541
N            2.96140284790148       -1.71399719847478       -0.00991699374726
C            3.22918699736327       -0.41912623667940       -0.00691963248947
N            4.54294114349559       -0.14114827821021       -0.00399359398202
C           -0.54311052912346       -2.83874187238971        0.00148272723922
N           -1.83224419367717       -2.63243281515187        0.01052173086282
C           -2.24929327195888       -1.36681247654603        0.01771146776240
C           -3.55006427390378       -0.88793500267915        0.02990718558929
C           -3.49426662845372        0.51561493821915        0.03763362503018
N           -4.54561787968241        1.35886829135747        0.02452712191751
C           -2.13014897918859        0.93313867505902        0.02902665511774
C           -1.75484056156686        2.27155147983966        0.04308423470692
N           -1.50231324763283        3.39641099763460        0.06087917088228
C           -1.32624957031588       -0.22331729817677        0.01632703709024
H            0.44858403521785        1.62028920847696       -0.00087982228178
H            1.89308096165567       -3.38820208982009       -0.01702684002122
H            5.18574543042833       -0.91513947259343       -0.00428852388126
H            4.88338453868554        0.80593820836642       -0.00364572308908
H           -0.24220400604554       -3.87947510780583       -0.00371454293783
H           -4.44253418644359       -1.48184158401571        0.03301656463933
H           -4.39126493559246        2.34860060071415        0.11069352376994
H           -5.47848991288662        1.00174065153842        0.12428871364132
