27
 energy: -47.744808183902 gnorm: 0.000714097024 xtb: 6.6.1 (8d0f1dd)
N            4.78249949966328       -0.46054427457490        0.11674831725707
C            3.67907438467122       -0.78106486110107        0.07351675206986
C            2.35236036393759       -1.20902984363642        0.01667141342525
C            1.92355894042338       -2.55151385506054       -0.04337874227188
C            0.54209715400562       -2.59589040130039       -0.09205003297480
C            0.04357731942918       -1.27582721191922       -0.06344725291564
C            1.19749653817408       -0.39967950305789        0.00871737187265
C            1.02689210034284        0.97972187189374        0.08101736845426
C            2.12769218123781        1.85301365067264        0.20787024733740
N            2.97061384023694        2.62123494856868        0.33824979399103
C           -0.27019900278201        1.53075315063402        0.01890658554711
N           -0.41051467172597        2.89735625074258        0.00714214828249
C           -1.40200339646167        0.69071490253282       -0.08485203831498
C           -2.64565297107398        1.29456273036507       -0.40147731231690
N           -3.85445799134002        0.92397303278807       -0.10541488203762
C           -4.31305385784743       -0.23333825866144        0.30068412515984
C           -3.68430456906517       -1.47101615324313        0.15032496901927
C           -2.33601213477748       -1.67159220276053       -0.05454669126145
C           -1.25741772486462       -0.75868351278141       -0.04521867234225
H            2.58329505720013       -3.39992886810793       -0.05734933572809
H           -0.03484890866400       -3.50038693683504       -0.14293248321301
H           -1.26446301959565        3.29831824545706        0.35298128735014
H            0.42391770358064        3.43090061750731        0.19620275881231
H           -2.60498447835862        2.25785902885812       -0.90296662373251
H           -5.32620901459383       -0.20087849510752        0.68537142945083
H           -4.30796884958375       -2.35053230442429        0.23830606308812
H           -2.03142007986890       -2.70680192264771       -0.13022108010787
