28
 energy: -53.063691088737 gnorm: 0.000991272271 xtb: 6.6.1 (8d0f1dd)
N           -4.80421614066831       -3.30782221970478        0.33113362502203
C           -3.87626897479532       -2.64234005352810        0.23722897150974
C           -2.72140491449736       -1.82714297798279        0.12741544761664
C           -1.48908584879063       -2.46301020671071        0.31915314182060
C           -0.22779565892685       -1.92849328000040        0.19910452084531
C            0.22161621154117       -0.60288644331020        0.04777319394879
C           -0.62778236152157        0.58147965678117        0.04115165460479
C           -2.01721936258004        0.54734473446317       -0.26586638110535
C           -2.59934774818811        1.73961690523325       -0.78194236390790
N           -3.13741288499399        2.59556657651849       -1.32211426885674
C           -2.93319568660008       -0.49525202325880       -0.22610812442460
C           -0.03003371266894        1.84342285390723        0.25366999084465
C           -0.80649636322724        2.98552423363017        0.56373227896916
N           -1.33444867791475        3.93528490192750        0.93005162711063
C            1.35630872100622        2.02850749492346        0.27846771973362
C            2.18095853365734        0.94529411948257        0.07283588388426
C            3.57808053076917        0.82881491923847       -0.00456352688117
C            3.87660534698862       -0.53032445679262       -0.15865236759749
C            5.16348824178522       -1.07549535342488       -0.29258236546504
N            6.21194396420442       -1.52789810024276       -0.40129817821358
C            2.68425283348380       -1.27801715336413       -0.16410753419846
C            1.60981198104785       -0.38788668255827       -0.02949245652215
H           -1.54355387214936       -3.52254954968479        0.53858133102356
H            0.57377188662737       -2.64848511028177        0.29627904192358
H           -3.95450129088552       -0.22775298839333       -0.47510388326104
H            1.75462906455593        3.01946671047350        0.44134666384506
H            4.28872569154989        1.63172788056797        0.04487652029704
H            2.64625402379233       -2.34535791540676       -0.27955372486885
