30
 energy: -50.112886972928 gnorm: 0.000732389669 xtb: 6.6.1 (8d0f1dd)
N           -4.64995865277630        1.74788119354406       -0.08822191263448
C           -3.74083339024953        1.04073853503800       -0.05891285520195
C           -2.68329251598970        0.13987867507508       -0.04555916049618
C           -2.81214799339167       -1.27146131517980       -0.13228851278619
N           -4.00111667604689       -1.93514444013528       -0.17455083435057
C           -1.54009176288908       -1.85828823944384       -0.10216178478884
C           -0.58285279292476       -0.84329305038080       -0.01341058370251
C           -1.30695994323421        0.41895397764366        0.03641682450236
N           -0.70032859795232        1.57602046749418        0.21154062252109
C            0.62001173175344        1.60435397965773        0.21779831102540
N            1.13304371674047        2.90918610874743        0.40899894869953
C            1.46859915171660        0.47918702255031        0.03550295877994
C            2.84986361871347        0.66905475147339       -0.27170964681864
N            3.23572638886159        1.88233273334462       -0.71366799673067
C            3.90193032128570       -0.27037845498979       -0.16991606923253
C            3.88633308041927       -1.60588350594852        0.13553051178310
C            2.77648921980091       -2.43544528151074        0.28757282436607
C            1.45417456155950       -2.08245879854752        0.16818260853017
C            0.82311819006677       -0.83232096924478        0.04904808287246
H           -3.99789287940390       -2.89682783756570       -0.46804607145416
H           -4.82324488962639       -1.39606353598458       -0.39028180362551
H           -1.36984854968478       -2.91828159413589       -0.15921134941329
H            1.76356932307758        2.97574930715575        1.19992850326231
H            0.34430387504142        3.53528988762369        0.53463689189904
H            2.55319135142484        2.62871228875618       -0.76684006582105
H            4.19529263676980        2.04750634530021       -0.95826983474012
H            4.88260516888669        0.15802721284134       -0.34787201829742
H            4.85404227365018       -2.08484377511273        0.21838685548279
H            2.98346667323969       -3.48091581442556        0.47455856436418
H            0.75683585146137       -2.90757772334013        0.22664700910555
