29
 energy: -50.391776929480 gnorm: 0.000798320032 xtb: 6.6.1 (8d0f1dd)
N           -4.71979216049318        1.14884867736919       -0.33255595673307
C           -3.66222237462282        0.70864896250294       -0.21374382198417
C           -2.37198490478088        0.16623956074749       -0.07286878249299
C           -2.26291706163877       -1.22487039130314       -0.31376547405551
N           -3.33932702181937       -1.85151950188679       -0.84446626234498
C           -1.19210877907087       -2.02008149628522        0.09785746810217
C            0.08762945709745       -1.64932424602827        0.47429939940255
N            0.86063651204939       -2.57743701816865        1.06565819477204
C            0.72209663809034       -0.38033546447470        0.18088688067355
C            0.03951712090386        0.87220988433127        0.18553462247193
C            0.81814616795890        2.04570933694804       -0.00675973573696
N            2.11229856921287        2.09939440839802       -0.15850964055865
C            2.77635431156661        0.95503822777622       -0.17585998249380
N            4.08885032449032        0.80816843517478       -0.32948130622979
C            4.29941483660885       -0.51614301867272       -0.36951242281684
C            3.14870902767703       -1.27544097561450       -0.19759775409794
C            2.10042865015393       -0.35002984268696       -0.05452238638189
C           -1.36705757529836        1.05822575147707        0.36142730351616
N           -1.78850554988347        2.22854174150400        0.88373771786322
H           -3.35115878367886       -2.85123838884027       -0.93107605381428
H           -4.18027871360822       -1.33763528198346       -1.04430338804972
H           -1.39735943657499       -3.08470277120736        0.12971081289371
H            1.81178262722878       -2.34789071344042        1.30178426416168
H            0.52384231617803       -3.51225019385199        1.21199397140318
H            0.32525370665786        3.00489328865181       -0.11185202205846
H            5.29800906059330       -0.89077389445447       -0.51648097053326
H            3.10624247549548       -2.34804380388481       -0.26635961784266
H           -2.76705027961022        2.46556352909768        0.86337559926079
H           -1.12453397958135        2.93591368410572        1.14473603480320
