32
 energy: -53.564747049498 gnorm: 0.000729168002 xtb: 6.6.1 (8d0f1dd)
N           -3.17914834171828        3.60899195054391        0.76128766816867
C           -2.75161095689819        2.57699901204865        0.48555488693324
C           -2.24032313541348        1.30327432070257        0.16608234798977
C           -3.19111515501071        0.29175578308518        0.08584161618820
C           -3.00356881333236       -1.01237444540782       -0.29668627826414
C           -1.80587279641851       -1.72502443302042       -0.43734872155771
N           -1.93009607600979       -2.94871163632530       -1.00514077603882
C           -0.49272883664331       -1.31212660043799       -0.03497629457047
C            0.44412840155204       -2.32515364786998        0.32895430376788
N           -0.00440202533295       -3.63977601444394        0.61825634355743
C            1.79821061122255       -2.08562322940934        0.42030106319577
C            2.29500624944912       -0.82192604025290        0.13195917959532
C            3.56403174879882       -0.24889738115123        0.09680375379146
C            3.35183435367615        1.10778876401924       -0.17134390922107
N            4.30066574487871        2.09371895561820       -0.24367126415894
N            2.04551160462667        1.40871100491245       -0.30406293713074
C            1.36061301767639        0.25157823254041       -0.12496987231906
C           -0.02876739408484        0.05510679156409       -0.12382570576377
C           -0.85017232987229        1.23799325273425       -0.14016903147831
N           -0.23452246313983        2.39685409372682       -0.36337727180146
H           -4.21353873832456        0.60113254868419        0.26962117436713
H           -3.90230835479113       -1.58610036813715       -0.49037390067135
H           -1.14333784437092       -3.57869708474521       -1.00295866024038
H           -2.84608700453969       -3.30870512612139       -1.20699931565183
H            0.73492809987537       -4.18656715582946        1.04068986160881
H           -0.82920278672440       -3.65729081576726        1.20501808971648
H            2.46701100124398       -2.88396696454956        0.71395236520633
H            4.51023562986664       -0.73156872246280        0.24303512224128
H            5.23189315016920        1.79718461106225       -0.48545008852667
H            3.99651261162288        2.94928194567407       -0.67996936069626
H           -0.74730989035528        3.25659731568677       -0.24328396362016
H            0.81393512542188        2.35567059252920       -0.41044361391645
