29
 energy: -50.403461555983 gnorm: 0.000867747116 xtb: 6.6.1 (8d0f1dd)
N            2.43723485844054       -3.71190124380499       -0.06727161935222
C            2.22365626411128       -2.58207619584450       -0.05057849008688
C            2.01928940377359       -1.18521154312406       -0.03063341540333
C            3.21592887323834       -0.47416023664089       -0.04187469563316
N            3.49647144347217        0.80759811301654       -0.01516821514315
C            2.60217698143340        1.79738845805812        0.01674755704935
N            3.18753952937189        3.01915427114887        0.04018780784536
C            1.19947955513443        1.75686929053727        0.01335655188073
C            0.30542077170573        0.69047229071587       -0.00242839546468
C            0.65992283353639       -0.72255916958611       -0.00453558466727
C           -0.33829802178919       -1.68135553783633        0.03296504951118
C           -1.71419657442039       -1.39367384212351        0.05386787086918
N           -2.62186792740645       -2.40510407939458        0.10491395772744
C           -2.08333281012369       -0.05523538818280       -0.01716164609149
C           -3.31639992016609        0.63976306511071       -0.06190468582217
N           -4.58229884819371        0.11390712049137       -0.08142148523606
N           -3.12411662594749        1.97002745638875       -0.04895935847318
C           -1.80677527121029        2.17522524377570       -0.01833345148149
C           -1.07643528562024        0.97314212115602       -0.01230796357314
H            4.11529906706570       -1.08653151011148       -0.07212719814308
H            2.64947850501591        3.86170678225493        0.11860004746209
H            4.19065393730177        3.05631307269037        0.07572701898507
H            0.73268033482247        2.73369241229794        0.02688586497064
H           -0.05036700342408       -2.72326311283445        0.05946616021153
H           -2.27508788766126       -3.32719139219132        0.31570301538329
H           -3.54773331301126       -2.18886238481909        0.43446264438764
H           -5.28813112589631        0.82060193501511       -0.23291598663972
H           -4.71204011828417       -0.71836957046969       -0.63703409160736
H           -1.43747014326875        3.18473689490611       -0.01189577386499
