25
 energy: -48.322764644972 gnorm: 0.000319117569 xtb: 6.6.1 (8d0f1dd)
N           -5.04347419483716        0.99413763066672       -0.00756062159989
C           -4.04615670873306        0.42712924772460       -0.00501049849315
C           -2.81101748183498       -0.26821719855371       -0.00356716173799
C           -2.91983679464131       -1.64798446415825       -0.00097063702239
N           -2.00062565724110       -2.59970199484865        0.00222655672607
C           -0.70732061767725       -2.44223949832291        0.00275103154521
C            0.14296175408104       -1.31029730348851       -0.00035025159596
C            1.52347712905159       -1.61752930743343        0.00053221728535
C            2.52883096250692       -0.66928283184668       -0.00173494508087
C            3.88738659753240       -1.05885212170635       -0.00071423505757
N            4.98076937653583       -1.40078909019334        0.00024957969687
C            2.15360381017118        0.68187330428159       -0.00499306362490
N            2.86560867022255        1.81132155401285       -0.00755203747515
C            1.94272738896876        2.77481831921882       -0.00981486142591
N            0.67147454000713        2.37643054871808       -0.00896831265243
C            0.74521697979504        1.01970845237086       -0.00586258195714
C           -0.27717564407949        0.06832323261760       -0.00374546805922
C           -1.63506570718291        0.55201339323000       -0.00484736648665
N           -1.79697541940699        1.86214523002102       -0.00755761352267
H           -3.93166155487518       -2.04600912580536       -0.00116847902887
H           -0.18768726697800       -3.39807715077827        0.00612334955681
H            1.80791729407277       -2.66007920124779        0.00312479075242
H            2.20872524274411        3.81508938699425       -0.01219390460891
H           -0.92400839303615        2.44782621077744       -0.00888614167752
H           -2.72264983996586        2.26373020794855       -0.00860800715544
