27
 energy: -48.552187588059 gnorm: 0.000806453090 xtb: 6.6.1 (8d0f1dd)
N           -5.51734179207360        0.35327456136440        0.61091064074987
C           -4.38756868589870        0.46117474102938        0.44167619731364
C           -3.00546306305349        0.60077609399577        0.24145045352251
C           -2.33743021276451        1.81594187420255        0.02239089279321
C           -0.97259368578367        1.53113042881752       -0.07723974805186
C            0.12769825407475        2.34700940560967       -0.25102503457739
C            1.39825869059354        1.78255219280139       -0.21035578134872
C            2.49118206881531        2.66991260380605       -0.32505846245494
N            3.34771790729389        3.42696806869742       -0.42971238900224
C            1.62389639438513        0.38682020851669       -0.03762647443034
C            2.95492666917174        0.00162918065816        0.17808785598712
C            3.53188117545966       -1.23224531873249        0.41956840310312
C            2.95521247381350       -2.48782292519857        0.31421690198095
C            1.65551831374530       -2.77258090005826       -0.07215680627756
C            0.57902716217360       -1.90762179239779       -0.24605566682214
C           -0.55669220735714       -2.59652516693449       -0.75050871644864
N           -1.37433645204822       -3.23969483188561       -1.23339291552843
C            0.46852952983704       -0.50134991231148       -0.04798272918038
C           -0.79910947492163        0.08883439584359        0.04136398273354
C           -2.07861440513957       -0.45284927327454        0.25077402254903
H           -2.79414410745410        2.78579869166847       -0.03545575059755
H            0.01895764870085        3.41472440186995       -0.37696315870473
H            3.64884475016151        0.83443943566823        0.21536691265082
H            4.58390788122916       -1.21176344990148        0.67318851049912
H            3.59967080099104       -3.33798670410236        0.49234931012219
H            1.42865414238154       -3.81868229937215       -0.24496157258217
H           -2.33333263193281       -1.47732852057995        0.44110766330198
