26
 energy: -47.246206580062 gnorm: 0.000402500284 xtb: 6.6.1 (8d0f1dd)
N           -2.77269962413629       -2.78149849362279        0.21745923750325
C           -2.28148170610741       -1.75323905131005        0.06402428336328
C           -1.76378594995065       -0.45593749151871       -0.12370417206340
C           -2.66946319875533        0.62938285315827        0.12443124621509
N           -3.81274677783587        0.35234339825334        0.78022111484668
N           -2.55222189723489        1.87467655545252       -0.29655897587677
C           -1.45795646018760        2.40927740623962       -0.80829200787867
N           -0.21213133706055        2.09621784124933       -0.63713660941556
C            0.32362257676497        0.93527157690005       -0.28613197737383
C           -0.38188055319045       -0.36754618964290       -0.36007450783425
N            0.26843782105290       -1.51690874433432       -0.46462036801762
C            1.58903112571531       -1.57795959452157       -0.29776749456252
N            2.15825525685475       -2.77423795053968       -0.51521851307080
C            2.32275252464947       -0.44277740069249        0.10361228545981
C            3.66549849653393       -0.21091751308537        0.39218091883653
C            3.84307243682058        1.17308092197787        0.56798938637345
C            2.64110547394518        1.81992913866737        0.37480978650096
C            1.65949187250155        0.83888685738462        0.08493828895321
H           -4.49187417957851        1.08759807342641        0.87379766139311
H           -4.06118443053363       -0.59585500940697        1.00584494152207
H           -1.62865533221388        3.33914392149928       -1.34449225673691
H            1.56491641947252       -3.54539199497282       -0.76828819538187
H            3.12839793071926       -2.92607585223533       -0.30998123555717
H            4.44304524944998       -0.95066431304459        0.46499843205631
H            4.77757957887692        1.64403723560898        0.81399170635427
H            2.45638079402851        2.87548894700967        0.43047382759153
