30
 energy: -50.115135175877 gnorm: 0.000550792141 xtb: 6.6.1 (8d0f1dd)
N            3.67834951457100        1.93796181048582        0.51044629522625
C            3.13464223735713        0.93349812998083        0.33938814039646
C            2.47790135678945       -0.27063363647208        0.12631529223855
C            3.11022623099848       -1.52842729279136        0.15637204063000
C            2.16939499094369       -2.53732404170181        0.03259524689767
C            0.91024433911284       -1.93579285507908       -0.03005467081849
N           -0.29085356507111       -2.50803199351170       -0.03174174283004
C           -1.35174492021827       -1.74735910782700       -0.01502403511556
N           -2.56818903912032       -2.46708300848272        0.08914625339785
C           -1.33752622246335       -0.31258456762060       -0.08636746726026
C           -2.58215916563386        0.39604038211039       -0.11529166468311
N           -3.66349129983291       -0.21667976252898       -0.63670214326192
C           -2.80140216901476        1.65720795313913        0.46642709492749
C           -1.89726338555441        2.66579841504009        0.70504686541556
C           -0.60242471271810        2.75186986713319        0.21832461635314
C            0.14391748045741        1.73896175711542       -0.36906647889803
N            1.17244968196912        2.08308597695767       -1.16291966366126
C           -0.05438407295179        0.31875742310824       -0.12913916475791
C            1.07613989435856       -0.49523825664780       -0.01783488628383
H            4.17160944245263       -1.66399515250489        0.26945271025302
H            2.36084364682885       -3.59268483733753        0.03013254385528
H           -2.33380398590503       -3.45427166318946        0.12340088669945
H           -3.09618381379609       -2.21655025541327        0.91841028029391
H           -3.58944190191730       -1.18654880474694       -0.91422348663928
H           -4.56850746899950        0.21186292679942       -0.54886665864129
H           -3.83705141752488        1.87423049327870        0.70096215149644
H           -2.28333511536377        3.55024023062962        1.19496979905186
H           -0.13579400205604        3.72820032395820        0.24314678474856
H            1.50794342047330        3.03209883569329       -1.16500308805436
H            1.81065702072890        1.37417168262524       -1.48584827297598
