29
 energy: -51.207478345653 gnorm: 0.000878097247 xtb: 6.6.1 (8d0f1dd)
N           -5.71858095467620       -1.59781326967663       -0.40155878066101
C           -4.63746835055017       -1.22046607705419       -0.28352428486985
C           -3.33464150645860       -0.72230363792741       -0.13393280881770
C           -2.27382968377004       -1.62194057106956       -0.23519501291552
C           -0.92253071040480       -1.38918784688655       -0.11064002548037
C           -0.21450823840989       -0.17572635901632       -0.00772334399180
C           -0.84220950602537        1.14152628736372       -0.06473575772316
C           -0.03561532561860        2.27954586189688       -0.24462997684846
C            1.34020183314761        2.22785812139278       -0.26731938025450
C            1.97075059494679        1.00604803915342       -0.09532181980041
C            3.33709518488966        0.64374968386839       -0.04065127602987
N            4.40723531081357        1.45287503038774       -0.16438644452196
C            3.39259636342322       -0.76953936852611        0.14294548652050
C            4.58241947014912       -1.49051898609375        0.25739298856975
N            5.58804549228519       -2.04153011057026        0.34831896986182
C            2.09244929812763       -1.27076368701163        0.18938742154552
C            1.18774926442916       -0.19813427055449        0.04170468537430
N           -2.13310960814472        1.42291508061072        0.09925185375719
C           -3.20336182320182        0.67376184576240        0.17416961096615
N           -4.32260376921124        1.33598006877010        0.54036452608119
H           -2.56578469492110       -2.65186152938065       -0.40791252806945
H           -0.29962697163167       -2.27140286172841       -0.16970976238521
H           -0.54870213251459        3.22418665074739       -0.33217290450791
H            1.91065756034441        3.13803900283664       -0.39330693741933
H            4.28943947340699        2.44742032098527       -0.21891571849642
H            5.33230428162475        1.07414727630399       -0.06073985151724
H            1.85250682939609       -2.30721577338500        0.33779727233538
H           -4.25753098274908        2.32670972555458        0.69332448196819
H           -5.22017844889653        0.88348638004937        0.53332067832997
