27
 energy: -42.160358294971 gnorm: 0.000604569946 xtb: 6.6.1 (8d0f1dd)
N            3.88340019640035        1.45946041268278        0.00765370463107
C            2.70659766186835        0.76543120522698        0.01722866233772
C            1.52568975049866        1.52409977228235       -0.02100428050047
C            0.18483473745716        1.15197408662855       -0.03534744679043
C           -0.76251239112215        2.19536266070861       -0.07687909374995
C           -2.12072102692579        1.98027507977352       -0.06974653780168
C           -2.60602956212678        0.68078600673265       -0.01453868471419
C           -3.90928723716385        0.15946874174344        0.01459297646161
C           -3.81311075039757       -1.22776633411449        0.07113887047534
C           -2.47219714494559       -1.59710644859810        0.07587495250031
C           -1.68493244906817       -0.42789398137643        0.02292687502529
C           -0.29192521364447       -0.23564285078559        0.00158543768135
C            0.54208646168312       -1.35001593791481        0.00143935516589
C            1.93865002953123       -1.47203276153750       -0.01598222163774
N            2.44560589462595       -2.73986698221343        0.00341043959095
N            2.88795924937595       -0.54581798583823        0.00573628183349
H            4.71987432653753        0.92649998178939        0.16991502588207
H            3.89229843259567        2.43798947722694        0.23138690463897
H            1.69878542619890        2.59534578938847       -0.03980379538768
H           -0.38925147013868        3.20949971675164       -0.11303257275578
H           -2.80278686113704        2.81911782703855       -0.10259806562392
H           -4.81685940166406        0.73550996654558       -0.00345691021289
H           -4.64385800429810       -1.91069890375172        0.10684804060287
H           -2.11901709474442       -2.61219241296946        0.11903795352246
H            0.02430508615062       -2.30073418625882        0.01375364749189
H            3.43534529838578       -2.83352260412023       -0.14287803251334
H            1.85443061276745       -3.52082594854050       -0.21614411965322
