31
 energy: -53.847110017417 gnorm: 0.000504567556 xtb: 6.6.1 (8d0f1dd)
N            2.72682492532347       -3.28388850137427       -0.14166155737958
C            2.51870626389809       -2.14870010202408       -0.09209113740602
C            2.32715998644199       -0.77886516662463       -0.04512552854534
C            3.38910055197905        0.17997691231080       -0.07514233635109
N            4.70671867738501       -0.11836926282650       -0.09505740922333
N            2.95802205885513        1.44327907514840       -0.03272939983413
C            1.62181173017065        1.36629781382317        0.02607698967611
N            0.79469099666607        2.38308524783637        0.16567305275784
C           -0.50476270665232        2.14232906516860        0.16569646980932
N           -1.26486936606517        3.32326925310209        0.33167476580486
C           -1.11406674591394        0.86882860552774        0.00673564629479
C           -2.51461002039051        0.76557785839617       -0.28494803564766
N           -3.13942221709248        1.87895050098668       -0.72141713904833
C           -3.34565792485396       -0.35660629327314       -0.17964599041104
C           -3.08041506459739       -1.68267459301174        0.13006134900759
N           -4.13989566869118       -2.51929958310750        0.28286200381769
C           -1.79880911925018       -2.25931511931517        0.25667217358047
C           -0.58952785164873       -1.64065410824048        0.14017261895947
C           -0.22695447846072       -0.28075402593679        0.03626929253639
C            1.14778535008533       -0.00931018940860        0.00173185752562
H            4.98795679142368       -1.05803588685303       -0.31417643214066
H            5.34539258636987        0.63534664209104       -0.27786699300903
H           -1.90955553861814        3.27490685742449        1.11236900568720
H           -0.61275498323902        4.09065896052027        0.45654429727564
H           -2.60817149010708        2.73359123275696       -0.82543934728689
H           -4.10407970280224        1.84033799198500       -0.99632189989423
H           -4.39386403335445       -0.14231639417214       -0.36740668648666
H           -5.07190691178746       -2.20269275595613        0.08545009506930
H           -3.98532045754306       -3.50623360046904        0.38220030265794
H           -1.78341896218536       -3.32931120607454        0.42121886283235
H            0.26452904305469       -2.30515744711048        0.18663916787138
