30
 energy: -56.505066747526 gnorm: 0.000770958770 xtb: 6.6.1 (8d0f1dd)
N            4.72017587992557        2.95886384035969        0.80225522692504
C            3.97899432654493        2.11945910082723        0.55860363120988
C            3.05064325178996        1.08920762474410        0.25419387044719
C            3.59434886394445       -0.17095089012693        0.02424694847603
C            2.87764371596239       -1.34313256187723       -0.21425543199484
C            3.65909957731111       -2.50663652665507       -0.44814368167712
N            4.28456902513161       -3.44624783679038       -0.64394854507806
C            1.49954209375868       -1.54477662880135       -0.18786070173901
C            0.42320840094293       -0.65883156557356       -0.04883783031997
C            0.53490768033737        0.80798173379616       -0.06827134691156
C            1.71759485228539        1.50492426349047        0.16437891069054
C           -0.64788161015459        1.58975811478348       -0.23996410218547
N           -0.57316522403493        2.94437979691137       -0.42666049742316
C           -1.92225545733641        0.99791660558437       -0.14779794914079
C           -3.06446257327508        1.81676362934932       -0.28963894384392
N           -3.95232892655272        2.52863362210925       -0.43351718417543
C           -2.04294709267034       -0.37322765788132        0.06272692594561
C           -3.16197323181820       -1.21276343231214        0.20600793215614
C           -4.50357249565957       -0.82662324593002        0.24710574828041
N           -5.61364030750273       -0.53296056566589        0.28872397170304
C           -2.68258363704421       -2.53942814882385        0.30802143285610
C           -1.30362407304657       -2.54144826458267        0.22454616920946
C           -0.85575994519574       -1.20957347782540        0.07605926032083
H            4.67439135795469       -0.25177995426712        0.04846690759126
H            1.20640158985358       -2.58147412426526       -0.29966502625057
H            1.59592466892873        2.56838699228205        0.33838859688478
H            0.22654610251698        3.34223037118634       -0.88698731855831
H           -1.44610637335663        3.42232728760929       -0.58909650687478
H           -3.30965420671542       -3.40249857487960        0.43584144091552
H           -0.69149526542338       -3.42144397536804        0.28707724786053
