25
 energy: -49.099609350337 gnorm: 0.000870277148 xtb: 6.6.1 (8d0f1dd)
N            5.70141826618369       -1.59430641993076       -0.03816050376265
C            4.72460233266151       -0.99611270778234       -0.01588995416380
C            3.51802678320118       -0.25249551357091        0.01288665768186
C            3.60641203680050        1.10933264197243        0.36006603632059
N            2.72736446204671        2.02239438374977        0.05536899492401
C            1.48530864273651        1.95259828281287       -0.28388919757859
C            0.58124675388249        0.87227424304344       -0.07746645127179
C            0.99979253697740       -0.51809586236800       -0.08985756015788
C            2.33145936394919       -0.95132742482099       -0.19940523716171
C            0.00583923571596       -1.51994212044298       -0.07815769072920
C           -1.34739454637038       -1.24437766561994        0.02663740723857
C           -2.27699747296341       -2.30938997547248        0.09895415637793
N           -3.01266613305115       -3.18515227912418        0.15649640541840
C           -1.77389012437211        0.09211609908676        0.04832211565169
C           -3.00461960256417        0.75978232979133        0.07279565133862
C           -4.29089220993532        0.21993359839298        0.11840728539630
N           -5.35884158759567       -0.20078446381143        0.15542834980973
C           -2.67060799373377        2.14320099919779        0.02708501684408
N           -1.37175298304821        2.36312755528723       -0.02515280000474
C           -0.77745251209248        1.14511259764801       -0.02258904089138
H            4.51293707543704        1.47474849048597        0.82891949128112
H            1.05217263499642        2.86532998389819       -0.68026918398593
H            2.45595900723281       -2.01652548444921       -0.36537940251015
H            0.31848212021153       -2.55367227894133       -0.11741773612935
H           -3.36896799530722        2.96018318286713        0.03215048646406
