26
 energy: -43.234693703407 gnorm: 0.000331351622 xtb: 6.6.1 (8d0f1dd)
N            2.91860270722236        3.18955558899664        0.03033543369253
C            2.38419406416685        2.17298960251020        0.02153067559278
C            1.80559761125691        0.88068044428474        0.01226304709514
C            2.77752675016926       -0.12228259458211        0.02822467897537
N            2.70152522318437       -1.43024279383511        0.01236761745918
C            1.58065712723378       -2.14908518954799       -0.00988457354843
N            1.81826385503078       -3.48181684913998       -0.03447003189177
C            0.23615826525473       -1.73379036874360       -0.00238589512483
C           -0.34808078381662       -0.47331410892979        0.00281108933965
C            0.38248095377600        0.79833999632549       -0.00605648409767
C           -0.33067153143336        1.99461502342653       -0.02619140448287
C           -1.71900706012360        2.05306550525447       -0.02946440883983
C           -2.44324146778374        0.88260880658276       -0.00924336394662
C           -3.83432647246015        0.62278839060765       -0.00147059398928
C           -4.00790467860157       -0.74811745961345        0.02118885147751
C           -2.75568944949967       -1.37598455413471        0.02673288737722
C           -1.75796754155623       -0.38954628365215        0.00823575219811
H            3.80676493961901        0.22918756182850        0.05206875997190
H            2.77492592428149       -3.78775382417457       -0.04114666651479
H            1.07469262628267       -4.15436381463104       -0.05814635996033
H           -0.46840505094408       -2.55593499224941       -0.00556755674651
H            0.22571447038302        2.92040555061453       -0.03730181929359
H           -2.21430832116911        3.01339719065747       -0.04491802582590
H           -4.60751190631282        1.36842398172641       -0.01136656843046
H           -4.95223447727381       -1.26219670801169        0.03342570619574
H           -2.61524407118646       -2.44196118286970        0.04520197461774
