30
 energy: -54.145874658461 gnorm: 0.001000323621 xtb: 6.6.1 (8d0f1dd)
N            5.15421145407057        1.45301713341179       -0.41229414966062
C            4.14574829048721        0.90726227337167       -0.29819920762963
C            2.97270423185189        0.17296786855300       -0.17217722451503
C            2.91745252273239       -1.24993289006654       -0.14748116669156
N            4.02116421477554       -2.05747720190430       -0.16399740846381
C            1.59348737682230       -1.66575902148107       -0.01233850385515
C            0.77678150590832       -0.52739316524860        0.04048591037506
C            1.65398433890454        0.64122364603792       -0.08995197746118
N            1.20663115906284        1.88725120263913       -0.13008750886712
C           -0.08717276571805        2.07207760663233       -0.02254058138300
C           -1.04811466477151        1.05378107959722        0.13921591491364
C           -2.43025368620744        1.41148466227342        0.30673093880336
N           -2.72849125089251        2.59136873281193        0.88020032164089
N           -3.47003117251495        0.73752143431210       -0.14836068813810
C           -3.47303942593709       -0.54349175148147       -0.48129113870970
N           -4.45001352956859       -0.94078416200019       -1.31825997541904
N           -2.73705391449052       -1.50958220314414        0.05872161097506
C           -1.50832838928580       -1.38311607043861        0.50063750104602
N           -1.04219572823809       -2.38985291279017        1.25102280635686
C           -0.59357616875255       -0.30311819464901        0.18058734915019
H            3.89069925242639       -3.01463981178336       -0.44707172531148
H            4.88159937659129       -1.62643682842708       -0.46298111889032
H            1.28015926933941       -2.69537642490866       -0.02900783504999
H           -0.40595233278135        3.10289855469755       -0.12349668771410
H           -3.68763410504285        2.89240519238103        0.88123518012232
H           -2.00220810121269        3.22816555068160        1.15697436536005
H           -4.60290370521143       -1.92310192134068       -1.45632673325025
H           -5.14131642031934       -0.27370587962907       -1.60889695050028
H           -1.64352190149526       -3.16795442444844        1.45840987114700
H           -0.08827577153254       -2.37588496495923        1.56883136081999
