29
 energy: -51.194457079844 gnorm: 0.000612487720 xtb: 6.6.1 (8d0f1dd)
N           -5.03846425005321       -1.34025009095139       -0.45948078623621
C           -3.99108206661576       -0.89797856174635       -0.28639303330407
C           -2.71347574916799       -0.33872850018765       -0.08986462417853
C           -1.70266207162700       -1.22888912766408        0.24264014581032
C           -0.33313956553297       -1.03338337189491        0.36171144115436
C            0.34388948065210       -2.16924779346322        0.83966065536114
N            0.86604701921692       -3.10698571490489        1.25736899638291
C            0.45783431283119        0.13824396615940        0.12506902614994
C           -0.10972765635585        1.47762342824313        0.24734369147107
C           -1.46409729950929        1.81920433015705        0.10672414396765
C           -2.61004519161294        1.08310440814849       -0.15437797197335
N           -3.74627581645069        1.76834847270175       -0.43202842060401
N            0.65861089960534        2.55088891156138        0.46858032745890
C            1.97532267777945        2.45769310605562        0.44078163354548
C            2.61769376587232        1.29288974956533        0.08540636477914
C            3.97503359795337        0.97836427900517       -0.14633305380743
C            4.05402283445075       -0.34097374574308       -0.52684377836243
C            2.76555712486762       -0.92296018274718       -0.51790433129373
N            2.52825494557984       -2.15315726257717       -1.01865493605439
C            1.83132813149135        0.08910481762414       -0.10477665735704
H           -2.03237744594020       -2.25018179590458        0.41070615918434
H           -1.60632232620816        2.89325342341838        0.14254907451831
H           -4.61718618158384        1.28219633721404       -0.55855853616502
H           -3.74386575915482        2.77186246268136       -0.41371844036049
H            2.51592691064433        3.36975011656702        0.66036336641035
H            4.79391184045608        1.66712684944688       -0.05203815252693
H            4.94786632481112       -0.87069553361421       -0.80222865274367
H            1.67393740154676       -2.64209668006333       -0.81153621055982
H            3.33495909535566       -2.72829355188472       -1.19951602856668
