28
 energy: -47.477025592958 gnorm: 0.000406143073 xtb: 6.6.1 (8d0f1dd)
N            5.17775402784576        1.36857518508745        0.72955476952762
C            4.19608168309944        0.80877905004198        0.52378971186991
C            3.00442058257268        0.11440381979051        0.27868054707897
C            2.91169775072609       -1.26078239185952       -0.01866771405563
C            1.55984968669066       -1.57420386355994       -0.13919421103482
C            0.90071397389803       -2.77951462440211       -0.37048908693908
C           -0.46892450748154       -2.80563849206172       -0.32125361796939
C           -1.26165012700452       -1.65653608846181       -0.09295601238203
C           -2.62332548105750       -1.88241029095322        0.11226848498934
C           -3.65499583825064       -1.00719618606019        0.41996543265929
C           -3.66505128515300        0.36708063095911        0.39916933584360
C           -2.63363337913326        1.24096957102179        0.01197991300173
N           -2.97589199167215        2.54965670515971       -0.10182605510626
C           -1.28214361646886        0.88633106158782       -0.21103791663677
C           -0.51339814047791        1.95817857694519       -0.72225583312934
N           -0.02827305614919        2.86971263625951       -1.22930271184825
C           -0.60548143143624       -0.35223922763377       -0.04831628072419
C            0.79272744675244       -0.35878157751489        0.04279153795290
C            1.72148155654442        0.66826189190957        0.31568089646605
H            3.73904670065303       -1.93964514158675       -0.10931867239291
H            1.46253450845352       -3.68614259786187       -0.54206947300309
H           -0.98353465702557       -3.74909508772875       -0.43225710002366
H           -2.91013853755392       -2.92722136807514        0.09014018288601
H           -4.59800798143916       -1.47493251338990        0.67438502690442
H           -4.60527562926212        0.84855745679843        0.63829307848530
H           -3.93983740752278        2.82170700376093       -0.03347277159229
H           -2.30992786471089        3.22619861713100       -0.43398106303898
H            1.51025492496302        1.68848131039716        0.57291264081229
