29
 energy: -50.405729681411 gnorm: 0.000811923095 xtb: 6.6.1 (8d0f1dd)
N           -0.77982871237968       -3.83116441835140       -0.12737942669395
C           -0.44686089548759       -2.72943180939973       -0.07371358925833
C            0.04145773069453       -1.41501428083675       -0.02410319228692
C            1.44677063864453       -1.26828374594153       -0.03117255369720
N            2.25860297172802       -2.35646380872510       -0.05561435858341
C            1.95024810031701        0.03025452263719        0.02423729348936
C            3.24286856092333        0.58478235691917        0.07365569928788
N            4.45134962476446       -0.06301549428412        0.11621105459948
N            3.19512878596259        1.93588110284210        0.03727253416649
C            1.91683999527123        2.28385430978117       -0.01299472337530
C            1.05648636040807        1.16262386234662       -0.01030743849589
C           -0.33736832514855        1.03278859713098       -0.02307824635939
C           -1.12817938319056        2.19460752742259       -0.06659052552613
C           -2.50054711647948        2.35666493892375       -0.07132668576689
N           -3.49890852922367        1.50083178189043       -0.01224100672249
C           -3.37327150889385        0.17499933272584        0.05342997840166
N           -4.56814339694702       -0.45650584617502        0.14818075967295
C           -2.22591496222729       -0.63489993693088        0.04143211346058
C           -0.86729494271228       -0.32144446637087        0.00200660326631
H            3.20673847851137       -2.22899457264379       -0.36537476463339
H            1.83494655264548       -3.25456850093914       -0.23035474159925
H            5.22034436999552        0.57665833111293        0.25857428014498
H            4.49756141664555       -0.88778805926874        0.69601516077643
H            1.65458693334533        3.32555802029715       -0.03922198739765
H           -0.56414323324072        3.11664947385664       -0.10734251180761
H           -2.85477656886365        3.38324899518148       -0.12780889709540
H           -4.63862948202302       -1.45718898552330        0.12110742437540
H           -5.39850564329692        0.10664457039898        0.09943139739012
H           -2.44564078474274       -1.69697662327661        0.07435355276737
