31
 energy: -55.438274930736 gnorm: 0.000599129121 xtb: 6.6.1 (8d0f1dd)
N            5.04768501730113       -0.32277775186285       -0.70421898168462
C            3.97483829857886       -0.60945332773732       -0.41502081113235
C            2.65355237571942       -0.99121141001938       -0.07859970789155
C            2.55269571325537       -2.18686318301387        0.64227338991774
C            1.41774792472179       -2.92602010600546        0.87971174515613
C            0.11450803333754       -2.64036803368778        0.48281901054180
C           -0.45727557503070       -1.45830096923850        0.03097357511293
C           -1.88478153042306       -1.47278396339204       -0.18683797119964
N           -2.53530625220864       -2.67533821921253       -0.33846084805251
C           -2.61516059623562       -0.29302914266114       -0.13200582441084
C           -4.01070360060815       -0.31701239012898       -0.31240231798811
N           -5.14632513468863       -0.36043120348201       -0.48012558520778
C           -1.95563907215278        0.93314043114780        0.10653582771555
C           -2.43033679550668        2.22018950993459        0.29170099845592
C           -1.32772898207336        3.07676640982256        0.41560314214571
C           -0.14851514215855        2.35166049933771        0.26304652060381
C            1.13383710465037        2.87078548538604        0.41537410506051
N            2.20101526278787        3.29177992261833        0.52312231690956
C           -0.50628849211612        0.97028435532636        0.06447896188251
C            0.23670062082094       -0.18793077873789       -0.08576354602643
C            1.62874833123457       -0.11515912884168       -0.47993657207883
N            1.95629268850883        0.87941988494286       -1.31943731279836
H            3.49430475153257       -2.60608281232424        0.97461048393551
H            1.55716386557982       -3.86811287239865        1.39232047701217
H           -0.58921336826244       -3.44261836339603        0.66600353158763
H           -2.05692269787916       -3.41637226053577       -0.82289822706525
H           -3.52378448071677       -2.61129075240393       -0.52918946789290
H           -3.46234735872622        2.51043516467652        0.34978084075707
H           -1.37398452366241        4.13338108224293        0.60817971219783
H            2.92593921146464        1.07560270726514       -1.51559634082415
H            1.27834216795535        1.58377580137962       -1.55941913183945
