27
 energy: -47.747863297921 gnorm: 0.000725195228 xtb: 6.6.1 (8d0f1dd)
N           -4.30908648243622        1.42964537519691        0.53591871479802
C           -3.18248388231094        1.27244011885438        0.38212047399269
C           -1.79298474920249        1.10775268696918        0.22161916598835
C           -0.93882852660119        2.20774714400499        0.38382948169369
C            0.39414678416740        2.06415544088937        0.09525363125944
C            1.44690573648136        3.01185894273350        0.05464028414297
C            2.60050699427275        2.36968031419504       -0.32096680000638
C            2.34325821597474        0.98601173853601       -0.49581789682476
N            3.24441325679641        0.13441823390903       -1.02251319793224
C            0.96250911194156        0.75906845162767       -0.20613498551544
C            0.15828390852944       -0.37515375163762       -0.12360756396416
C            0.63155663941912       -1.67071645583909        0.22584421580255
C            1.92800086281307       -1.73706194287774        0.76978471997182
N            2.99015697326684       -1.82609701070696        1.20413169522548
C           -0.04774335995233       -2.90124675215144        0.27644686473581
C           -1.28091400379183       -3.22495766826188       -0.23705580884895
C           -2.13445601722478       -2.29571968873068       -0.85724500060928
N           -2.14601028722556       -1.01642344610065       -0.68994643531515
C           -1.29496373353993       -0.15124823197877       -0.16478058605683
H           -1.35475536848113        3.16693015586510        0.65584305828927
H            1.34155799209181        4.05734037275886        0.27699239163231
H            3.56295591161464        2.82369691433427       -0.47036801176789
H            3.11008471824225       -0.86036310929873       -0.96069864139875
H            4.19643273741476        0.45457691128551       -1.09110745646285
H            0.52816264047693       -3.71149180385105        0.71089368448964
H           -1.59271382239139       -4.25862812603127       -0.21055443990648
H           -2.93264601214522       -2.66827130719431       -1.49188397111202
