27
 energy: -46.952683553695 gnorm: 0.000422129248 xtb: 6.6.1 (8d0f1dd)
N            3.31167651185281        2.89886518624117       -0.09520041521781
C            2.86919521246754        1.83823933224335       -0.06542409709822
C            2.38311096148007        0.51229841367890       -0.02828815501716
C            3.40911615718451       -0.43121316289239       -0.04198431981115
N            3.41000854553295       -1.74631902680381        0.00003944950512
C            2.32766410645828       -2.50673768370116        0.04595558086445
C            0.98167523393615       -2.20178328528862        0.04324372440122
C            0.31321655493334       -0.96111888781460        0.01652266721410
C            0.95592981023809        0.34342701589677        0.00818551440106
C            0.17970921441124        1.49088397335926        0.04440996384693
C           -1.22491318971312        1.49570264350089        0.06160445290643
N           -1.90109754980235        2.67153160192248        0.11033149067222
C           -1.86475127885426        0.26046666052239       -0.01009013911766
C           -3.20845680398812       -0.16665559412594       -0.06576819754404
N           -4.34340298640213        0.59214724222912       -0.10413352384665
N           -3.29101519001163       -1.51675043071051       -0.04656934347393
C           -2.05399164363589       -1.98736434474015       -0.00487769977664
C           -1.08604987815025       -0.95346407970944        0.00454213272731
H            4.41494580008553       -0.01774783953441       -0.08845893063061
H            2.57700740634976       -3.56409047064170        0.08500016219201
H            0.32287888478501       -3.05950353629617        0.07012068477704
H            0.67767690722475        2.45001733942963        0.07072785903039
H           -1.37291616033921        3.50673109213268        0.30467560444958
H           -2.85770252149356        2.65965932276943        0.42069459920128
H           -4.30262214175876        1.45392593365444       -0.62624620470803
H           -5.17733262689954        0.04501344929332       -0.26172816444965
H           -1.89587590289124       -3.04992290031495        0.00751214390236
