28
 energy: -50.687090646098 gnorm: 0.000548226254 xtb: 6.6.1 (8d0f1dd)
N            5.16846045939643       -0.13219882647594        0.45940467202647
C            4.02778020436654       -0.10763699270068        0.29908554998010
C            2.63956604082434       -0.06286814291111        0.10849605782625
C            1.91625449851473       -1.26396122392869        0.23934790764255
N            2.61416872210351       -2.38517463950933        0.54583979987538
C            0.53951959163359       -1.42587351054626        0.00302210414592
C           -0.47050369012585       -0.49184577918886       -0.12613303191529
C           -0.28865962055851        0.96999395819504        0.02764621704965
N            0.84981541430176        1.60238192489193       -0.18456441233395
C            2.08697624988871        1.19353242353720       -0.29263858017298
N            2.94060397294216        2.12287777482947       -0.77868014283272
N           -1.29754909945471        1.77510533859017        0.32305537964540
C           -2.56137339251280        1.34747389348405        0.31874117578988
N           -3.48872937441783        2.24231463744623        0.69513300598944
C           -2.88564230230647        0.04017811735250       -0.08161462770550
C           -4.05601676169640       -0.70137122211901       -0.27596238226725
N           -3.78052467376900       -1.97326899970888       -0.59272867989553
C           -2.45306074522732       -2.10477841780249       -0.59428176659484
C           -1.81117017700377       -0.89074200651531       -0.29136235312350
H            2.14007350942467       -3.26205579947387        0.65879966526129
H            3.60156467064538       -2.33667515675194        0.72761051263277
H            0.20762250031799       -2.45828935888437       -0.00609559701685
H            3.93448204280251        1.97296142768197       -0.76271370024519
H            2.57460658912519        3.04434604624681       -0.94298393740483
H           -3.18651839680965        3.17052668579595        0.93477047134232
H           -4.46612178969653        2.02137458610198        0.64325584711179
H           -5.07729830488744       -0.37123618059915       -0.20504840183756
H           -2.00646644392123       -3.05257921733742       -0.83552910997315
