31
 energy: -54.650560675416 gnorm: 0.000663751667 xtb: 6.6.1 (8d0f1dd)
N            0.14204634161800       -4.43023275789979        0.86548547592263
C            0.35312521160561       -3.32020856849858        0.64853951917325
C            0.65623974980988       -1.97226252347313        0.39155717061365
C            1.99736521257454       -1.61558277098696        0.34108167014065
C            2.32622039710005       -0.31368205056358        0.03101429670967
C            3.57524231105826        0.32673281504893       -0.16990211467176
N            4.79414697605957       -0.26256538407317       -0.12868220966676
C            3.31495517483118        1.67511960900593       -0.49323565964538
C            1.95579920020757        1.89496818177069       -0.46644426949124
C            1.29228503093476        0.68267596568958       -0.13021326818007
C           -0.05769137724346        0.37507153151165        0.03986009777831
C           -1.01998220180235        1.41615290742994        0.20235771801403
C           -0.55140536112597        2.68941201297801        0.56915247420264
N           -0.29214951430985        3.75195351345975        0.93375880633770
C           -2.43523700537307        1.35161295356639        0.12698321570618
N           -3.14341815611287        2.47276135232605        0.39505951478315
N           -3.21879248732949        0.34402745338489       -0.24172569889559
C           -2.88736688364823       -0.92908039646582       -0.33692767840523
N           -3.89595238094823       -1.72462652718964       -0.76460491934102
C           -1.67161258217123       -1.56590544147723       -0.00950105828186
C           -0.40225548957402       -1.03619642396329        0.15525850068556
H            2.75105171854269       -2.37345357190192        0.50900066940915
H            5.61349655010425        0.31934186154996       -0.13074709881156
H            4.87956644533359       -1.18377864083794        0.26340698947769
H            4.06777799826894        2.40534711049653       -0.72729359739885
H            1.48353017848246        2.82749730157114       -0.70672646872908
H           -4.14077227210735        2.42956343589445        0.28937464388683
H           -2.69162157704843        3.33701626820450        0.63595459336394
H           -4.79434918794552       -1.30740662413097       -0.92983755244739
H           -3.79791245733929       -2.72280992617032       -0.78084904331635
H           -1.73424461245311       -2.64721160576316        0.03348909307873
