30
 energy: -54.138855854910 gnorm: 0.000530466790 xtb: 6.6.1 (8d0f1dd)
N           -0.33517968064905       -3.40272756347939       -0.71011694476322
C           -0.62675136059053       -2.30635261945060       -0.48905448916720
C           -1.04825998822061       -1.00592995548716       -0.21143814104795
C           -2.45859005697158       -0.80460340543071       -0.39443252346622
N           -3.15812542352664       -1.79381833304560       -0.99652997407053
N           -3.19570172613620        0.20448408422798        0.00989625008927
C           -2.70756442681215        1.35577653001217        0.48475543254140
N           -3.58745026074252        2.07295140101745        1.22505492244904
N           -1.56253234628182        1.93939531559630        0.23380215620856
C           -0.38954462041369        1.40397762801479       -0.09798985619325
C            0.59856371912066        2.29919489050891       -0.49506371739772
C            1.94848260249843        1.95765478142031       -0.54451302037222
N            2.88129729846936        2.84906502184886       -0.96067399265348
C            2.30222081741011        0.67388258643984       -0.10180506253869
C            3.53363020686652        0.05712729756402        0.14209248039143
N            3.38878756352111       -1.17406551529615        0.62749976025578
C            2.06770405809286       -1.43368522581849        0.67896976219251
N            1.67089447656102       -2.56260378139911        1.30616014164477
C            1.29846616670774       -0.31220337351308        0.20992673462804
C           -0.05826399461145       -0.02487842803420        0.03570831615650
H           -2.72793120052575       -2.67249194588156       -1.22506831259610
H           -4.15750956006786       -1.69971088009187       -1.03133044569447
H           -3.36288690520014        3.03196479599702        1.42193002716904
H           -4.54736437105567        1.77777064368501        1.23100161691900
H            0.29407098952983        3.31648623782945       -0.68978142220336
H            2.61408966884000        3.80955112148724       -1.08831273022891
H            3.85237428179101        2.64645415623117       -0.80431012835977
H            4.52088384074742        0.45715619302721       -0.01089786142836
H            2.43884512752333       -3.17890256001146        1.52734357525482
H            0.80970137942484       -3.01311774346560        1.03636506427361
