27
 energy: -47.751348857454 gnorm: 0.000655957732 xtb: 6.6.1 (8d0f1dd)
N            1.18540905145582        3.42945934014195       -1.06883413251369
C            0.60411180344645        2.52938867494499       -0.65567443808634
C           -0.24687691020195        1.46935740241574       -0.27531123650037
C           -1.59951188374034        1.78824398953647       -0.14138067212796
C           -2.50707530886969        0.78703389478231        0.12916851063134
C           -3.90099565274740        0.79673098024302        0.33055858892393
C           -4.32223443496370       -0.52219325811333        0.46467333492187
C           -3.22906653816144       -1.37496208415760        0.33770984311934
C           -2.07259579779983       -0.59244515094989        0.13584749487698
C           -0.73501115054957       -0.94665288173790       -0.08572041132961
C           -0.42328289048977       -2.28287371518892       -0.37599354929141
C            0.80255295305136       -2.85881797435522       -0.66058112317017
N            2.02147398576888       -2.43199432360342       -0.42674401933821
C            2.38291434232169       -1.25421342786570        0.05741801696837
N            3.65882858319855       -1.22127112986193        0.48832657538187
C            1.62212937510765       -0.03942554802263        0.07523754902271
C            2.39352394174441        1.07996538388927        0.46168683243343
N            3.10840090252369        1.86782661877655        0.89910315949149
C            0.24209633206861        0.14505791795500       -0.12938313945409
H           -1.90964527947768        2.81858362989020       -0.24341797928214
H           -4.52144339445890        1.67275430901474        0.36674864686007
H           -5.33475343775005       -0.83777113421164        0.63969372629331
H           -3.27211308639912       -2.44633165925419        0.40963284482448
H           -1.27618470683563       -2.93998913941909       -0.47399118585349
H            0.78885456572016       -3.86164816536724       -1.07761418281464
H            4.09541886566255       -0.36732265835259        0.79065787116142
H            4.20353407617496       -2.06013736472930        0.38674085705140
