29
 energy: -46.392756295098 gnorm: 0.000680192211 xtb: 6.6.1 (8d0f1dd)
N            0.56537578255661       -3.21466384510735        1.07887444882359
C            0.14170143467129       -2.23786548288207        0.63894763088309
C           -0.54304451428917       -1.07725260019123        0.22157803259051
C           -1.93472789898433       -1.27802472341131        0.06624742760937
N           -2.39252110747035       -2.56500233724718        0.10729015717659
C           -2.89436619345628       -0.30387148819455       -0.21452017711295
C           -2.77614521370212        1.07846446133172       -0.17903943170871
N           -3.92719868324243        1.80515442877245       -0.35786291028609
C           -1.62303071321961        1.81690080458469        0.12408751224203
C           -0.28816324333808        1.45297570598169        0.22159527257471
C            0.62766818315974        2.50993503882673        0.45409914701565
C            1.98677144844141        2.35401809178940        0.38819183529076
C            2.50857368810829        1.10940201304444        0.04467738157707
C            3.81198113634096        0.66697153749064       -0.19243324206849
C            3.75142637923750       -0.68673747994087       -0.54711810187338
C            2.43783266873381       -1.11390798734912       -0.51025635615162
C            1.61915768154886       -0.01556723513540       -0.12868700307567
C            0.24275009717286        0.09843864968760        0.06550238147234
H           -3.38009478719913       -2.72626314769454        0.19183970791711
H           -1.77654256653404       -3.29318748815104        0.42816840721554
H           -3.89090463361307       -0.68419731819041       -0.40960975138710
H           -3.84540679750194        2.79068536951236       -0.53700926999401
H           -4.72444900982727        1.34579098092329       -0.76277118855453
H           -1.80559230430944        2.88135686126682        0.23082420343413
H            0.21576715838377        3.48868250593502        0.65598701744660
H            2.64341555517174        3.19538525081434        0.56033012201470
H            4.70153439175483        1.26764421447777       -0.13211792984423
H            4.59565468108813       -1.29554476784854       -0.81731589393066
H            2.09940610401690       -2.09526612889540       -0.78334462569542
