31
 energy: -53.875794567004 gnorm: 0.000747058629 xtb: 6.6.1 (8d0f1dd)
N            2.40608172171762        3.00032332133890       -0.05622006782028
C            2.30327815234137        1.84892237042827       -0.01722543859356
C            2.22912230615291        0.46811688977986        0.03372375067424
C            3.35743105998969       -0.35753525601590        0.28952432756139
N            4.64960862734200        0.10287206467583        0.34784597817986
C            2.94566674361789       -1.68493027835103        0.38082823328717
C            1.56065094191200       -1.72544886087543        0.21023127935686
C            0.64829236738261       -2.77694003968799        0.24706383487464
C           -0.69037816567704       -2.52424921021784        0.07381683338451
C           -1.18865916914966       -1.22100154483026       -0.12579181427397
C           -2.60884443485010       -1.03647830223866       -0.27334471902912
N           -3.34375329993725       -2.03763155327749       -0.79660068936584
N           -3.31406986257928       -0.02097278477133        0.18658776852728
C           -2.82742421854303        1.17167169730726        0.49514382052396
N           -3.53829008575105        1.91278069833442        1.36524819820837
N           -1.81898644738329        1.77701036585781       -0.11861533944895
C           -0.75752116051182        1.18757488142898       -0.60982283197121
N           -0.06327686299756        1.86697677921750       -1.53128937095274
C           -0.27368061986994       -0.12776922017378       -0.21201509094192
C            1.08588256502514       -0.37527798049194       -0.03036699670782
H            5.31272914001452       -0.48826525735858        0.82221473485180
H            4.75757435103772        1.09021365448825        0.52199122600255
H            3.58599767029224       -2.52691661540752        0.56813057670764
H            0.99293165759305       -3.78467763061556        0.43070785219888
H           -1.39190352170290       -3.34209254846923        0.16162001723957
H           -4.34230750073377       -1.93300744697528       -0.82781361397234
H           -2.90859015985434       -2.86382382033534       -1.16186235554918
H           -4.41361546881813        1.55892216866214        1.70512010171984
H           -3.29864141655502        2.88020988750149        1.48331528969370
H            0.86623710333205        1.56370741648211       -1.77208730908423
H           -0.28928230753613        2.83802130039057       -1.67349644368133
