33
 energy: -58.093160368783 gnorm: 0.000771877886 xtb: 6.6.1 (8d0f1dd)
N           -2.67071649004970        3.89325365589798        0.13839272729609
C           -2.31629739069011        2.80066927812820        0.08335368641683
C           -1.96590428179839        1.43819578015122        0.03029164909865
C           -0.63195781055880        1.10437456624016       -0.14841435548147
C            0.02063698291368       -0.13338450157001       -0.06871717017260
C           -0.63506821458919       -1.42682623251182       -0.02926548575870
C            0.11527004765938       -2.58456522843667        0.24408672638458
N           -0.50897651681448       -3.84097845850037        0.34756203902185
C            1.50003123649957       -2.53345404481459        0.39018646095429
C            2.17932900514055       -1.34594106693403        0.21524656832062
C            3.54687817186844       -1.03741466830011        0.25284452681656
C            3.68287544909159        0.32587309045995        0.04719478988613
N            4.83453345033525        1.05361275951798        0.05733025881145
C            2.37993052714732        0.90881141439980       -0.12362433363934
C            2.22043087278855        2.26362804384027       -0.37941367279881
N            2.17699582782159        3.39492658240482       -0.60463575219666
C            1.43208901018083       -0.12173583015105       -0.02765549871319
C           -2.00936034111228       -1.54405395734246       -0.44595648879126
N           -2.36402483440743       -2.62580768895478       -1.16470678335807
N           -3.01860689245846       -0.74765252390207       -0.16093684015927
C           -3.03571211753519        0.50928392269520        0.21849312880397
N           -4.19976976911564        0.95432703138617        0.73425858476327
H            0.02651361839013        1.95708663833030       -0.26249411615905
H           -1.40499892293542       -3.82291135662744        0.81548222676138
H            0.10302156755339       -4.53405932457419        0.75699059937437
H            2.04085282616320       -3.44303838155767        0.61472080918018
H            4.34739372904556       -1.73439638186514        0.41473889800603
H            4.78976909171801        1.99522601849397       -0.29655717924588
H            5.70432049337540        0.56402198142034       -0.06440624972498
H           -3.32026225891122       -2.71332814325514       -1.46044164747024
H           -1.68674305043388       -3.33791869676250       -1.37986726273286
H           -4.33601480903823        1.93831774082490        0.89226326865752
H           -4.98563940604418        0.32904564096838        0.76245541694886
