31
 energy: -55.446674938624 gnorm: 0.000798580992 xtb: 6.6.1 (8d0f1dd)
N           -1.39103076806248        4.09191331544152        0.47455600446629
C           -1.25421049947914        2.96117401837349        0.33406643318240
C           -1.14340872311598        1.55791791601860        0.17291686496869
C            0.13879810600554        1.08067818490553       -0.03818310152092
C            0.66104543018932       -0.21931041302377       -0.03131226654755
C           -0.10930530977840       -1.43568906145341        0.04215264414701
C            0.54263839502629       -2.63816182623460        0.34376319719418
C            1.91747565031739       -2.73839035888451        0.48707869753201
C            2.70380549063535       -1.63225271917976        0.24916657921177
C            4.10170438554269       -1.44450289385110        0.24027267316015
C            4.34902060124533       -0.12251826594618       -0.03640962750554
C            3.11673059035797        0.57182045863048       -0.19760210447467
C            3.05453732183653        1.92819927128631       -0.51124185142730
N            3.04185977158992        3.04834732824950       -0.78054932171445
C            2.07146516596364       -0.35169041183651       -0.02843586731907
C           -1.51075280733710       -1.51477842958789       -0.28066576048781
N           -1.94482166344712       -2.70186243266493       -0.75531676903852
C           -2.49718359919997       -0.52455562400632       -0.10614506838395
C           -3.82980104361120       -0.95572052715594       -0.29125388011673
N           -4.91681839876899       -1.29941711046575       -0.44315963694859
C           -2.36579496516635        0.84181369726944        0.23269537681561
N           -3.48324406151506        1.52869696998173        0.54996155804620
H            0.88594844885526        1.86216541804849       -0.10982786605548
H           -0.04587184007123       -3.52544833559672        0.52922005792725
H            2.36247234358456       -3.68545418750937        0.75617345714981
H            4.83413651719703       -2.20979966338826        0.41561834051786
H            5.31356667798818        0.34389056965981       -0.12844740167597
H           -2.91655979836466       -2.83337989219079       -0.98310788742419
H           -1.29029111789230       -3.42778594672000       -0.98435660211237
H           -3.43419237793726        2.52433821693134        0.69111016219470
H           -4.38544888679120        1.08454453220211        0.51129837423946
