26
 energy: -48.032684980418 gnorm: 0.000622434007 xtb: 6.6.1 (8d0f1dd)
N           -4.97952587051723       -0.23252466696338       -0.10302388672135
C           -3.87936333064667       -0.56068455077818       -0.05442447371978
C           -2.55182565423505       -0.98304605169372        0.01113657196985
C           -2.09261825391028       -2.31383584311245        0.13002716891438
N           -0.76968461991239       -2.41227888317053        0.17108439246027
C           -0.29498036574835       -1.15190033156619        0.09632158742086
C           -1.38311911624872       -0.20162905984908       -0.01558285922231
C           -1.07230331756373        1.15524927119232       -0.12660287156407
C           -2.07270154991473        2.13884796852994       -0.29993124740060
N           -2.85018080045027        2.97003709855797       -0.43627013259617
C            0.25743936932012        1.55627732765090       -0.05464273157564
C            1.33014053271239        0.65599055063761        0.05330377372596
C            2.65735811692694        1.18956523100954        0.20321157426038
N            2.79087139518806        2.45362770607465        0.64442503560298
C            3.84048640515739        0.55075331946737       -0.21782525860093
C            4.00026566978562       -0.77384832842739       -0.55525538432010
N            3.24542588945640       -1.79100787581073       -0.17517577329106
C            2.02078123917855       -1.78096535975930        0.22628904584911
C            1.04376997262256       -0.75366114117110        0.09011862751856
H           -2.70771914333025       -3.19383794936087        0.18562897719351
H            0.45205994203396        2.61411413736750       -0.16174128464632
H            3.70312862610155        2.87176279460654        0.70577570425425
H            2.00100760848291        2.98199358560343        0.96962150811917
H            4.70872554315169        1.19227280034864       -0.31133105170547
H            4.91187865704759       -1.07339055303137       -1.06048494470481
H            1.64679543831142       -2.72338855964990        0.61377761697848
