31
 energy: -55.456253538894 gnorm: 0.000903074203 xtb: 6.6.1 (8d0f1dd)
N           -5.42438064234047       -1.32683263443920       -0.16241903622235
C           -4.37143692379125       -0.86918261364895       -0.09987077217213
C           -3.08470864247283       -0.29206655643341       -0.02000796738475
C           -3.07103185644328        1.07995233900953        0.31248645870042
N           -4.23154218488485        1.65736753841784        0.68930186644747
C           -1.94951760319337        1.92182788839482        0.18033365442246
C           -0.64908717447653        1.59527070730182       -0.06696881083416
C            0.02006822606756        0.34892728376672       -0.07978516394035
C           -0.60908458006332       -0.94090452817356       -0.05444291459955
C            0.18518650068903       -2.08704414010617        0.14413860871563
C            1.55972271352493       -2.04092419356161        0.23967014381762
C            2.20189407332201       -0.82668923204894        0.07924024081237
C            3.57722948318243       -0.48043853767409        0.07418975011258
C            4.63455248454410       -1.38163998140849        0.20272591063511
N            5.49037617973207       -2.14222195364792        0.31021904325630
C            3.66376725408349        0.90144068351604       -0.08363632561012
C            2.36935610020253        1.44407173147141       -0.17090878256616
C            2.14084117799929        2.81005020912993       -0.33498955425740
N            1.98590808356455        3.94452826038638       -0.46461974194603
C            1.43165838039089        0.38200196938946       -0.08004626848751
C           -2.00963868124057       -1.16148244786271       -0.30300950415455
N           -2.34891947092742       -2.36741686086827       -0.80371179504042
H           -4.27065897635144        2.64861318080933        0.84709863643327
H           -5.08500391040928        1.12609631850012        0.73031309833931
H           -2.16393331565893        2.97815221160539        0.28568974982146
H            0.01239512447407        2.44486480591545       -0.16806925417259
H           -0.29412618232270       -3.04356598150538        0.29253789961638
H            2.12778766493179       -2.94106941769972        0.42346585483273
H            4.57370737000855        1.47209425055562       -0.13406989929189
H           -3.31553560677053       -2.59818085826979       -0.96483957496621
H           -1.64156679176656       -3.01669642902425       -1.09689317781604
