33
 energy: -57.287679875025 gnorm: 0.000340450446 xtb: 6.6.1 (8d0f1dd)
N            0.59075138408821        3.27397635808694       -1.08082761479574
C            0.90482220204615        2.23383107248937       -0.68340557956639
C            1.34564437216599        0.99099462366263       -0.22840447737881
C            2.76409424105879        0.85417831885230       -0.19554268943380
N            3.49440274352838        1.98752445615694       -0.43091475785282
C            3.47243551776416       -0.28403519776663        0.14435286842605
C            2.94524570336354       -1.56004545957269        0.40861933191473
N            3.79999974949292       -2.48661168490237        0.93823311481874
N            1.74572094583568       -2.03555879108763        0.17069420694547
C            0.59048288491161       -1.41379370953201       -0.07390435243261
C           -0.46541781755672       -2.27770507765204       -0.36875092485755
C           -1.79967637288031       -1.88548443323127       -0.39356620409555
N           -2.79541236340577       -2.78830879444891       -0.68154640288038
C           -2.07540724646273       -0.55524229843832       -0.07950303937755
C           -3.27335541061310        0.16726649717082        0.11054789302336
N           -4.55811536030732       -0.27510603274395       -0.06866981312624
N           -3.03594234712281        1.40813192354896        0.55839149008425
C           -1.70377899836870        1.56804630955314        0.60926812634588
N           -1.22559152647481        2.68778133883203        1.19676186039546
C           -1.01052117548354        0.38217553225169        0.17918622488448
C            0.33094239396340        0.02254656174290        0.01993520881996
H            4.48246761727429        1.89426445695335       -0.58618498079031
H            3.03837916780716        2.78948302823071       -0.83212936981380
H            4.54817691991007       -0.18107688879158        0.21812583421675
H            3.47275768043141       -3.43704247612111        0.95265337504551
H            4.79095048922173       -2.32817708036823        0.90624816762801
H           -0.21447218765401       -3.31886496813113       -0.50801189781573
H           -3.68915778957414       -2.60994315129387       -0.25140308840444
H           -2.51304390620919       -3.75662446259753       -0.66957440264579
H           -4.70844311070027       -0.87421558672956       -0.86657189211353
H           -5.23520554983451        0.46962555624469        0.01760233129758
H           -1.94365105090371        3.37075457277011        1.38587706761786
H           -0.33490152450956        3.05991225026128        0.90843281311784
