23
 energy: -40.058751590233 gnorm: 0.000350108025 xtb: 6.6.1 (8d0f1dd)
N           -4.96280005362250        0.76852219274308        0.09613583822135
C           -3.92235907035461        0.27987148443343        0.09901589310038
C           -2.67358454069101       -0.34232749135701        0.10326569205497
C           -2.44591212296676       -1.73997116992465        0.12449777456608
C           -1.09057189322831       -1.99847781781097        0.07900897296224
C           -0.40511775889203       -0.76539378502044        0.02629757089506
C           -1.41571506394461        0.28903959989195        0.06703361031587
N           -1.11251386195218        1.57593414872555        0.01887048665298
C            0.14746110963003        1.90539634293411       -0.08141916484378
C            1.24339027461568        1.00129870507368       -0.10288552473938
C            2.53380501578533        1.55621228342505       -0.16275146927434
C            3.75680318281479        0.95884417816073        0.08698352871310
C            3.96166613698698       -0.40114988619528        0.30833525425444
N            3.17692869921908       -1.37593565531248       -0.09287906451359
C            1.92737333690175       -1.39242115733633       -0.39820457086287
C            0.92850537930786       -0.41119901353518       -0.09378961667460
H           -3.22785737633473       -2.47665396940427        0.16689979235264
H           -0.63606241025562       -2.97120181438699        0.12198620470302
H            0.34975773981660        2.96827686368131       -0.10815445189526
H            2.55357732830399        2.63147475897257       -0.29931465693184
H            4.62113608220095        1.60580461213520        0.15606882741503
H            4.90232574410829       -0.73406806147767        0.73090450451576
H            1.58350636905107       -2.30386216781529       -0.87778641388731
