35
 energy: -67.139956929585 gnorm: 0.000618533126 xtb: 6.6.1 (8d0f1dd)
N            4.95185313277693        2.28664663063583        0.50575690817196
C            3.98498697255669        1.68871997310495        0.33011144003469
C            2.80005888283604        0.95535132982340        0.11865253526766
C            2.87655831552225       -0.42188264071257        0.43766678029842
N            3.94152190344739       -0.85040886782309        1.14102425238794
C            1.99613187900095       -1.39251596437699       -0.09243867426003
C            2.49310299564456       -2.71214178383826       -0.11663165254821
N            2.92371114382585       -3.77758286056654       -0.13717873062235
C            0.70767370766962       -1.19653960261273       -0.62075980559108
N            0.19200703192877       -2.16698263850434       -1.38493197760443
C           -0.13287063353267       -0.05868954887692       -0.33222111522380
C            0.33626294063390        1.29275041290650       -0.31947326018596
C           -0.58698905886287        2.33965804265196       -0.18257216304014
C           -1.94937976003541        2.13387783153187       -0.00332395378052
C           -2.80533790660707        3.24262132522288        0.15781064146147
N           -3.46458273962480        4.17405048844124        0.27382721720758
C           -2.43038694668875        0.82502571629481        0.05112225996444
N           -3.67814223123061        0.41126958036953        0.28343346012873
C           -3.62450776142777       -0.92600081153062        0.31886664420875
N           -4.72945657795993       -1.67122594782811        0.51684018471173
C           -2.31238137052145       -1.42866284931556        0.07355248472147
C           -1.99063417790914       -2.77362769241377        0.14928112959687
N           -1.75773776746966       -3.90213405114704        0.21545773571483
C           -1.50135502378253       -0.28185393449192       -0.11801084503766
C            1.72003362845536        1.67420864125176       -0.43020290993640
N            2.00321474988195        2.87197808242245       -0.97112278421208
H            4.66588595734387       -0.20549810195692        1.41055099469747
H            4.09848989548014       -1.83728355637111        1.26417537293450
H           -0.76959010899625       -2.11472891903515       -1.67974027401972
H            0.64172917043077       -3.06873773085590       -1.43619621910812
H           -0.24035188859580        3.36123860799932       -0.12534235676430
H           -5.56037124923682       -1.19040752367509        0.81410824573744
H           -4.63109381671712       -2.64898461689328        0.72857890950282
H            1.27429046607121        3.45448784720078       -1.34359425598108
H            2.94296292919192        3.23319742356819       -0.93839057853306
