27
 energy: -46.952545174009 gnorm: 0.000359257525 xtb: 6.6.1 (8d0f1dd)
N           -5.27461254461926        1.25577480715835       -0.00205711697509
C           -4.17855519159718        0.90331382633608       -0.00345043185081
C           -2.84632833356529        0.45953315014586       -0.00409483999345
C           -1.86163155562932        1.47091459419052       -0.00949380960144
N           -0.57001319656535        1.44379544422540       -0.00856234036264
C            0.26264812184435        0.38057383129120       -0.00158564043728
C           -0.08284696512154       -1.04240886905310        0.00099553157271
C           -1.37672197867959       -1.56488419754421       -0.00074164075217
C           -2.62673547797993       -0.94112581307541       -0.00102056123956
N           -3.71663466244049       -1.74300588772916        0.00308349975062
N            0.86308372297370       -2.00393529784616        0.00732849330095
C            2.14385010803140       -1.69958731479518        0.01304038600369
C            2.60046960118326       -0.39584578875893        0.01296915460570
C            3.87842358867413        0.21615131655932        0.02412739386696
N            5.07360300299912       -0.41793969550934       -0.00359520868016
C            3.68148008562571        1.61806318084411        0.01818647565131
C            2.33314514166387        1.89342745641949        0.00714341925719
C            1.62114157881637        0.66505236502675        0.00441526832501
H           -2.26098497237611        2.48475168018584       -0.01523614062554
H           -1.39418402286004       -2.64853463266881        0.00105213775055
H           -3.61109524043880       -2.74130186376141       -0.00003153173113
H           -4.64037881565126       -1.34526969653186       -0.00084324557837
H            2.81542186723812       -2.55214546345695        0.01681243482947
H            5.10719333575624       -1.40954268192061        0.15455844547710
H            5.91217489781954        0.11153749603553        0.15964161950744
H            4.47681662981713        2.34157893927234        0.02317537638937
H            1.87409389698125        2.86301634126029        0.00309544243955
