32
 energy: -59.167454675568 gnorm: 0.000490427355 xtb: 6.6.1 (8d0f1dd)
N            5.35428875902689       -1.39731938728833        0.29489073267750
C            4.25574981744438       -1.07793419193829        0.18101697837125
C            2.91277203132042       -0.66968516508940        0.04785201030456
C            2.00435846563531       -1.68866434540910       -0.24539583747182
C            0.62475386192148       -1.67806853914197       -0.32504097295490
C            0.10519513610735       -2.93948557101940       -0.69988186275169
N           -0.22079455386199       -3.98033430309431       -1.06047645242105
C           -0.29645836360311       -0.59957649928888       -0.12944227506713
C            0.09679460652740        0.80297163369461       -0.17134510437305
N           -0.80190059878849        1.77079736124902       -0.33993247173726
C           -2.10979220399498        1.54500839772579       -0.30701892094319
N           -2.90246415944499        2.62159461627065       -0.54552939544865
C           -2.59592833465160        0.27858581835719        0.03182121439868
C           -3.87183028900121       -0.23943051595760        0.31245653616953
N           -5.04113052879254        0.45391826772129        0.39032068302680
C           -3.73378464273676       -1.64269825637835        0.49280829876151
C           -2.42019633220029       -1.99548126730995        0.33914693067305
C           -1.65648276375942       -0.81848325847824        0.05911586965842
C            1.40212808965280        1.33061429384446       -0.02175814300826
C            1.41309435957923        2.74668668783993       -0.00736210935520
N            1.50278947825913        3.89270424622704        0.00643151972904
C            2.65812333869973        0.71798186651702        0.17256077490139
N            3.70751867100921        1.51788059077272        0.46042794421384
H            2.46292073113643       -2.65924333103458       -0.40892093442027
H           -2.41327859305828        3.43809308397652       -0.87897283704984
H           -3.83118615419523        2.46731258502252       -0.89930368365152
H           -4.98850192173155        1.43302324373491        0.62163328767678
H           -5.82859509321426       -0.03987973480689        0.77996891473293
H           -4.54454496530345       -2.30652624721332        0.73107819233597
H           -2.02747567373548       -2.98644364954690        0.45182818006072
H            4.63102179132136        1.12772223702347        0.54581522753151
H            3.58717327273465        2.51627865441729        0.49407686003165
