36
 energy: -61.250935674716 gnorm: 0.000521259746 xtb: 6.6.1 (8d0f1dd)
N           -5.42435427519710       -1.67615510127912       -0.35341876774675
C           -4.37830281311526       -1.20257820611952       -0.25378189863771
C           -3.11694830053909       -0.62981339506173       -0.13574211742431
C           -2.85456847739793        0.73812963132027        0.09621232850488
N           -3.81811204612363        1.71850934159073        0.23297406736403
C           -1.45833699189429        0.90643036926656        0.09519771537228
C           -0.66605693939138        2.05061332137283        0.14177140720963
N           -1.20843478548708        3.29927906994369        0.24812159706036
C            0.73397634566015        1.88263508248448        0.07411860220840
C            1.49912186622722        3.05637406852079        0.05635082740667
N            2.06911108282847        4.05858917721111        0.03692661140816
C            1.37589270494341        0.61346907402079        0.00199429543285
C            2.76129785378837        0.62875595627063       -0.14160602180881
C            3.71866069145578       -0.38901733007417       -0.22019510118306
N            4.99114955436374        0.01150888483254       -0.52792324765515
C            3.52347542449444       -1.75118895538989       -0.00944412764347
C            2.32663714780010       -2.41024157188006        0.26736715234707
N            2.41039824028300       -3.76590373767728        0.48396917600256
C            1.03838516879895       -1.87410875642475        0.26130139550062
C            0.55339485718282       -0.58158423334813        0.04404230330550
C           -0.84149857852459       -0.39709608157536       -0.04574731530907
C           -1.88735457886779       -1.32498370373863       -0.23511575822563
N           -1.80085131207223       -2.68024018404926       -0.47498036494039
H           -4.75689560120033        1.34869922916430        0.30263396210976
H           -3.62409694789492        2.41726989086940        0.93611484745604
H           -2.14580074371033        3.41783720914132       -0.09888672470620
H           -0.58187016940941        4.07680579837790        0.10289121861563
H            3.18451968977762        1.62374446388513       -0.23485936030463
H            5.75198412897496       -0.63026220456855       -0.39165985419720
H            5.21090024647877        0.99149135520228       -0.48904476621923
H            4.41196813757294       -2.37097449076402       -0.04078516087928
H            3.30959108843763       -4.15476743924745        0.70947761849070
H            1.61697920906915       -4.22528576147149        0.89772765620846
H            0.26981534930052       -2.59707791774255        0.49988559136937
H           -1.01432797596495       -2.96942653064343       -1.03939570727457
H           -2.67689500054622       -3.09186251761929       -0.76831032701786
