27
 energy: -51.771315581414 gnorm: 0.000615553203 xtb: 6.6.1 (8d0f1dd)
N            4.85309894566260        0.92840590835313       -0.12044140461977
C            3.71272267057915        1.06458616674694       -0.09156394340431
C            2.33210333379694        1.26514549864866       -0.05370128159364
C            1.67280882753889        2.51373058780618        0.02073210038435
N            0.35506675872993        2.39943758199435        0.05945609547828
C            0.07956656233165        1.06298034401303       -0.00446399704479
C            1.30674231256095        0.30778362701876       -0.06501892621188
C            1.25639033980500       -1.09365091794276       -0.08835036199674
C            2.43133561193178       -1.86535066648196       -0.18250400517150
N            3.35317666198173       -2.54300198823604       -0.27756286120828
C            0.01529315490058       -1.73741586857838       -0.00634466280806
N           -0.02514432618854       -3.10393955461242        0.02913076494104
C           -1.20028853973607       -0.98691326370486        0.06293861218270
C           -2.39164470555181       -1.66510339338602        0.41145803296775
N           -3.61817319536923       -1.36520507420160        0.10054290115646
C           -4.04480474059575       -0.25232544436474       -0.46023435185189
N           -3.58739952473285        0.95791443839287       -0.32210253075805
C           -2.35327168910041        1.29735635822393        0.05401057908918
N           -2.16141824385627        2.56272279019384        0.37551438932136
C           -1.16555062458903        0.45062301055385       -0.01144203401541
H            2.14206958581018        3.48024484145911        0.05799824654493
H            0.84503841658368       -3.58674887557208       -0.13001969656637
H           -0.86023339182582       -3.58679540525348       -0.24911694107627
H           -2.29456078967879       -2.59814620662385        0.95997535172622
H           -4.98487394966269       -0.33886360331082       -0.99691145261138
H           -1.16738842517123        2.89123666395620        0.38635688981829
H           -2.95254566005383        3.18657854630945        0.34781714912766
