28
 energy: -46.686517301107 gnorm: 0.000361551575 xtb: 6.6.1 (8d0f1dd)
N           -3.94764546945603        2.49228096272007       -0.64580802234701
C           -3.06994363571127        1.77612316947293       -0.45853666223846
C           -1.97693487490033        0.91856452371612       -0.21836917544033
C           -0.69814363439094        1.46120058307282       -0.10845671668631
C            0.43605559055783        0.67015880132983        0.10030375208110
C            1.68921239337739        1.34218775112820        0.33590452885029
N            1.64959286598305        2.59079668769867        0.85101367790459
N            2.90355307168671        0.95164769986142        0.01418207101868
C            3.36218780168834       -0.25203678511005       -0.25201814399160
N            4.61836626583072       -0.28764653591052       -0.75516560935675
C            2.73118498782558       -1.48035613435572        0.07182821871261
C            1.39925756101936       -1.66263785902575        0.30122991917458
C            0.31145946372304       -0.76000843121002        0.18013417739424
C           -0.98616464431676       -1.30418847028562        0.15574876487530
C           -1.46784205186083       -2.61062116366721        0.25440261120111
C           -2.85861196940192       -2.57915693146791        0.11877604662538
C           -3.28956039818401       -1.27121440185934       -0.07401762753741
C           -2.15995651077663       -0.45343432733875       -0.05907540874901
H           -0.58958174093415        2.52897523008495       -0.23774108196234
H            0.79952989654367        2.97551653743759        1.21953612222960
H            2.52288700810115        3.05814474570205        1.02061165473040
H            5.05686779295817        0.57774392806354       -1.01441203645750
H            5.03914822933621       -1.15672456440492       -1.02614503331018
H            3.37449326416130       -2.35038365562025        0.09786913822372
H            1.09945752126238       -2.68109137904287        0.50843756689259
H           -0.89279893589845       -3.50534404925532        0.41085020618444
H           -3.49860322865251       -3.44347855599015        0.16121322168485
H           -4.30271533187121       -0.94196081814358       -0.21241800150660
