36
 energy: -66.851270188314 gnorm: 0.000646362498 xtb: 6.6.1 (8d0f1dd)
N           -4.87478258718186       -2.69398435501452       -0.56902259061711
C           -4.00761477993724       -1.96259894172410       -0.37657103296962
C           -2.95080185716704       -1.06013147730661       -0.14451440990581
C           -3.23629031623350        0.28872462605289       -0.43886844825880
N           -4.36991021484801        0.56918362094737       -1.11445026725420
C           -2.48726982581337        1.37492198645231        0.07361327075797
C           -3.15579403489745        2.61400882107631        0.10491705459009
N           -3.70205304668356        3.62638773811034        0.13088236228797
C           -1.16963355283617        1.37016328578793        0.56385061309830
N           -0.76921936948147        2.44456092249651        1.26184309925306
C           -0.17718318220041        0.35949567916136        0.30085613481986
C           -0.45980032925387       -1.04622382762150        0.31076039798002
C            0.61110696311040       -1.95433064238076        0.23572684803624
C            1.93484700747816       -1.55710382610387        0.11389286453485
C            2.93347315654407       -2.55047023763608        0.02610834421322
N            3.70276122230748       -3.39951534128040       -0.02883594145265
C            2.23590468992408       -0.19561402001814        0.04844546968404
C            3.43676105606244        0.49598633436096       -0.13088282175734
C            4.72594445453476       -0.01297440083323       -0.25708647821117
N            5.81741371409648       -0.35944559501442       -0.37386091519650
C            3.11468358597625        1.88312470543839       -0.22104817104903
N            4.03600184527384        2.87218915267458       -0.37024977348940
C            1.74057694578388        2.04407806559434       -0.05417993327887
C            1.15514689489418        0.77791208872198        0.12840879958805
C           -1.77157120392769       -1.61803442389288        0.40196355057499
N           -1.89393508356029       -2.85030623784527        0.93308893503336
H           -4.67524955120562        1.52301959894954       -1.21230403858646
H           -5.00377763407051       -0.17015550732229       -1.36823874026239
H            0.17966294057789        2.49217060140135        1.59419551661775
H           -1.38779858620851        3.22609136273830        1.40412166665833
H            0.41927377226506       -3.01612076909425        0.18686002906169
H            3.72120743483097        3.77857136661005       -0.67138579760528
H            4.96477724034025        2.60037415849530       -0.64801568268557
H            1.23952674511791        2.99068595688535       -0.14858716073762
H           -2.77080307456787       -3.34181119908227        0.87258085589288
H           -1.09590700004817       -3.33647634450132        1.30073863242760
