27
 energy: -42.144723901818 gnorm: 0.000564785671 xtb: 6.6.1 (8d0f1dd)
N           -4.52218705414998       -0.81871991652659       -0.00756986833263
C           -3.19250236924643       -0.51469886861179        0.00472477565921
C           -2.83361012967060        0.82136698190879        0.17768139624543
C           -1.58282905773592        1.40974081670353        0.13014757128452
C           -0.30287953707459        0.88246319867724       -0.03284768274458
C            0.79388248485766        1.80864841027570       -0.08850972600858
N            0.55043127846500        3.18085106623173       -0.13461955761942
N            2.06369731099126        1.47838460718166       -0.03490725112318
C            2.37908941508730        0.18753246107641        0.04183396440191
C            3.62951968596161       -0.41207819188538        0.11711179689801
C            3.43067320340858       -1.80059616035593        0.10170286807387
C            2.07813490853386       -2.09138287897497        0.01632538156101
C            1.36991813182276       -0.87319726269577       -0.01665172087522
C            0.02176240825888       -0.53627489006243       -0.07565153130376
C           -0.92963779093059       -1.57988290758416       -0.19139125550606
C           -2.29388720362462       -1.58694389100696       -0.18926395601023
H           -5.18893264401518       -0.12510514647594        0.28226556266708
H           -4.81004164532102       -1.78040183050533        0.02728002088239
H           -3.66212956580070        1.49966109789056        0.34899996835232
H           -1.60303793688159        2.48214225756524        0.27980956343363
H            1.42448242238001        3.68413350195685       -0.20862262355671
H           -0.12411247984202        3.48491300393511       -0.82098261650484
H            4.57318801284948        0.09576930722792        0.17316358165340
H            4.21733639291119       -2.53406295510390        0.15101540648540
H            1.65924044247946       -3.08174462091569       -0.00782321305325
H           -0.47196733744826       -2.55431994340704       -0.30671449980878
H           -2.76680360886556       -2.55441898631893       -0.31825775995083
