34
 energy: -62.620996814345 gnorm: 0.000570446574 xtb: 6.6.1 (8d0f1dd)
N            4.64637017168215        2.39525471514263       -0.49802197631213
C            3.72031040363655        1.72723936327421       -0.35528550760010
C            2.58644843282379        0.91226173487196       -0.16570560672340
C            2.85898453594775       -0.40171369236573        0.29884973486145
N            4.08592342279236       -0.63507611443785        0.81221070561395
C            1.97819560990190       -1.48367146187264        0.15446083547109
C            2.52612066544176       -2.74923213664799        0.45130237896810
N            2.98519017925875       -3.77355991114142        0.70289669739185
C            0.63469570701384       -1.49768597515874       -0.31057393089134
N            0.13550950086558       -2.66219624096447       -0.70575236142799
C           -0.29078374066988       -0.39013641784086       -0.23542993339638
C            0.04526533541836        0.98740062993538       -0.07801891319126
C           -0.96999349913776        1.92134306180282        0.27955721944359
N           -0.64290535724801        3.26262756009010        0.55262628222272
C           -2.30369585982658        1.55864455044142        0.35283118779634
C           -2.67060390018433        0.26308768787976        0.04012537995588
C           -3.90000443669289       -0.43484985247269       -0.03867717138046
C           -5.17422878824133        0.08740026320332        0.16683698109033
N           -6.21972970568657        0.53431250404086        0.34157193095127
C           -3.55408763208805       -1.75080304874932       -0.36561347077683
N           -2.23622926188958       -1.91818874177303       -0.49351044876544
C           -1.65955476615603       -0.71418151483168       -0.25301952197931
C            1.34701920399303        1.50978740593860       -0.43177903787695
N            1.36885603220958        2.69999271246940       -1.05867754025198
H            4.37045336535734       -1.57624150737734        1.02750916019443
H            4.78262488330026        0.09078115205763        0.80564852667193
H           -0.91629624870069       -2.70989863547733       -0.77263391478963
H            0.70061604774619       -3.49466046883311       -0.63290615670781
H           -1.42027656730773        3.76060187991648        0.96500811771921
H            0.19861762462666        3.38971685666122        1.09890072018578
H           -3.04910986047648        2.28904431320999        0.63507953989220
H           -4.22474022165049       -2.57691284562488       -0.52007414245365
H            2.24767608073200        3.13893262660543       -1.28014062784303
H            0.51443452360925        3.22629620752848       -1.15310823616226
