32
 energy: -58.380867358988 gnorm: 0.000518473274 xtb: 6.6.1 (8d0f1dd)
N           -5.54180876185199        0.35939976213954       -0.31044641621564
C           -4.45877294432480       -0.00278535829490       -0.17485181032154
C           -3.12667052436577       -0.42939092674065        0.00109683434133
C           -2.98142333394861       -1.71209865724101        0.55049057500243
C           -1.86316113311851       -2.48839797516605        0.58100856541096
C           -0.55698539304853       -2.18250955020818        0.12617436287302
N            0.26784224390338       -3.21336274631354       -0.04483301701025
C           -0.00007188140181       -0.87068873199490       -0.05077408908164
C           -0.71796026820580        0.38437643384776       -0.05484802599710
C           -2.12044277399174        0.47869487686280       -0.38061057442763
N           -2.52091514558190        1.54486233655734       -1.09922251260218
C           -0.00054006174547        1.59377315234518        0.12252979543720
N           -0.67347061204509        2.81431138287357        0.27041401283040
C            1.40318454785608        1.63642709793959        0.14818240632325
C            2.07090323365170        2.85160497093000        0.38125379772494
N            2.56940847177622        3.86578899238117        0.58997390079821
C            2.11567627026767        0.45596785395080       -0.05188935590994
N            3.42939842140012        0.21459015218549       -0.11388236468817
C            3.49932370236315       -1.11930426147851       -0.23760229181786
N            4.68265508317086       -1.76809383065974       -0.28829623524761
N            2.32125723616630       -1.77473176095399       -0.25916332894516
C            1.39483076370376       -0.79095553023166       -0.14660702230032
H           -3.90090482037351       -2.16396070358943        0.90349403717535
H           -1.98950300592242       -3.50297258003975        0.93914918639297
H           -0.03862858405143       -4.14067266496583        0.19884149581527
H            1.27290202981009       -2.98618936013428       -0.20402438405684
H           -1.86947775113781        2.28274803447702       -1.31329772532063
H           -3.49965651088925        1.67334713564136       -1.29872917687272
H           -1.50661381094491        2.77955299175315        0.84114871660317
H           -0.05428639790020        3.56350467094326        0.55290687846118
H            5.48951953702595       -1.19807823189583       -0.47379835917516
H            4.68283506975813       -2.71598758571714       -0.62140183889909
