30
 energy: -50.134401706776 gnorm: 0.000651633548 xtb: 6.6.1 (8d0f1dd)
N            0.84640107586979        3.97089634297704        0.00272613735396
C            0.84885194033315        2.81826154062449       -0.00603081803644
C            0.93733935802804        1.41916355400430       -0.00935197692672
C            2.24019040544984        0.87072480221768       -0.01341801719704
N            3.32065993188372        1.67879161736958       -0.03721109876138
C            2.36329456619236       -0.52203184106446       -0.00394137854101
C            3.48823456778878       -1.35757614439170        0.00296009273728
C            3.04015642212992       -2.67641502131903        0.01522922702582
C            1.65290214318553       -2.68836417965138        0.01568465863360
C            1.19170797877716       -1.35631461581101        0.00402584598533
C           -0.11472182662496       -0.82714758994827        0.00120597645598
C           -1.19181442452221       -1.70451216169422        0.00420686639831
C           -2.57930592408403       -1.48922871721027        0.00863696369984
N           -3.36980776704916       -2.59704505268468        0.05730273989517
N           -3.27965733970756       -0.36386240298696        0.00418550379472
C           -2.78379728776370        0.86467843008235       -0.00274673423940
N           -3.74756944209332        1.82239841072903       -0.04327326752044
C           -1.45243351620984        1.31421178975731       -0.00444624988239
C           -0.24211758367072        0.63072476249952       -0.00447933987558
H            4.24054984595986        1.28100086448935        0.00308341174144
H            3.21035609125394        2.67773284207423       -0.00569016434001
H            4.51847976567922       -1.04761913576255        0.00003700993330
H            3.67060957014672       -3.54771080852643        0.02377159049900
H            1.05080475259350       -3.57878447787157        0.02540074716119
H           -0.91855965028489       -2.75167298671639        0.00904289141719
H           -2.98394511593685       -3.50984171482408       -0.09851545539739
H           -4.35930532758045       -2.46106024359232       -0.04715295551437
H           -3.51652341720758        2.79123183042825        0.07667279232626
H           -4.70236961461682        1.52685725781075        0.05228492998355
H           -1.36316843491950        2.39555825639135       -0.01086885200979
