28
 energy: -51.477409245485 gnorm: 0.000698165543 xtb: 6.6.1 (8d0f1dd)
N            5.31822254507145       -0.22211300292724       -0.67289929968363
C            4.19431431958082       -0.34411189754806       -0.47093409731908
C            2.81137433873383       -0.47665462771836       -0.21437568149374
C            2.27081688835011       -1.74109929410428       -0.44741040633014
C            1.05352052247054       -2.22434271519298       -0.02895304018144
C           -0.03236565289702       -1.50322634275672        0.47921335848409
N           -0.95684241379227       -2.16540117138771        1.17949966803733
C           -0.26936832719934       -0.09845730165692        0.21067808214330
C            0.75040474150301        0.90132156727840        0.21231708102689
C            0.34391315024594        2.25576669328838        0.07485063560443
N           -0.88150421448365        2.68429223007657       -0.04475101604119
C           -1.84550304369926        1.78119974005019       -0.08474579167246
N           -3.15080385407851        2.03232649402005       -0.24266525259742
C           -3.74591381210897        0.85130441477160       -0.32569776881964
C           -2.86051498189152       -0.23753056072133       -0.18235176294820
C           -3.21274642504244       -1.57522530492963       -0.31058172972486
N           -3.49197738265735       -2.69069500562414       -0.39899200007477
C           -1.57866999018424        0.34572211673149       -0.00180045854960
C            2.15902971863915        0.66518687379749        0.31374144786114
N            2.94013688988728        1.63242654133194        0.82372660148444
H            2.95315725366359       -2.46004890390458       -0.88397375003450
H            0.91565099308838       -3.29683980878228       -0.07807942747625
H           -1.80985042514128       -1.70909233466466        1.46094526184291
H           -0.93964810315565       -3.17140893724347        1.22455566131671
H            1.09149618264793        3.03379024741438       -0.01378551990758
H           -4.80671935291905        0.78131299309194       -0.48752294239698
H            2.54464334330402        2.49188546546929        1.16227046590745
H            3.94279491226400        1.55264123814054        0.75826405874276
