22
 energy: -39.544575636514 gnorm: 0.000563041618 xtb: 6.6.1 (8d0f1dd)
N            2.32137166157059        2.38345967165376        0.48289917789144
C            1.45493960329233        1.40951401044219        0.17795019260863
N            0.16655463394011        1.75992114697105        0.13514184587733
C           -0.77618699475450        0.87030066116747       -0.11109265217971
N           -1.94635618100657        1.35327679379480       -0.49403485795176
C           -3.11223312589084        0.78605773628755       -0.53251489502380
N           -3.56722439924549       -0.23981736094162        0.16645775351370
C           -2.81610640073607       -1.23317365797914        0.58343782112810
C           -1.48433322910745       -1.51110175116618        0.27949018873519
C           -0.50262181183200       -0.59180036734447       -0.09798122324156
C            0.84540331487560       -0.92683894580926       -0.23505067805907
C            1.57010134467555       -2.12523032763822       -0.41883383643094
N            2.87824552283032       -1.90542717642140       -0.42824799662641
C            3.07195256790298       -0.58839981968967       -0.23172091888852
C            1.86182574078083        0.09234691820684       -0.11478486711738
H            1.96065604029195        3.30873648086654        0.64308078806029
H            3.31156842401644        2.22143314580526        0.44980880919285
H           -3.86302887538704        1.30731302134799       -1.12041655015256
H           -3.35847607896097       -1.97278550993968        1.16559146025181
H           -1.13219972710878       -2.51206636308390        0.49833016864800
H            1.18031556497152       -3.11517589012518       -0.56887692627117
H            4.07138180208186       -0.19471295790549       -0.18458187996411
