34
 energy: -57.809090189631 gnorm: 0.000860034049 xtb: 6.6.1 (8d0f1dd)
N            5.64477096618405        1.43265602045653        0.20217969110182
C            4.58931010480976        0.96943747793060        0.14595004281212
C            3.31063137463148        0.40429268338381        0.05932935976467
C            3.22659720543808       -1.00075016339139        0.22416465678226
N            4.38977923542231       -1.64260971624504        0.53582722475871
C            2.09789156407386       -1.79899328180236        0.08250688002350
C            0.73419861846310       -1.51241978952468       -0.06861147150267
C           -0.12586627283450       -2.62307557523841       -0.18913424421932
C           -1.49652355303645       -2.51888608868333       -0.25343241866852
C           -2.07843723462159       -1.26869295324682       -0.13279425118024
C           -3.43141845917729       -0.85767558160935       -0.08683156734193
N           -4.52775173313073       -1.65539748706888       -0.14405990432513
C           -3.44446458805754        0.53893922944531        0.12302311495672
C           -4.57926283051295        1.32911324022079        0.27123761694890
N           -5.51604581864499        1.98859721547792        0.39402807136010
C           -2.10870076869699        1.00543311986373        0.19301595570171
N           -1.78139953897399        2.31377854702892        0.42935866146550
C           -1.24144629083419       -0.10028701157415       -0.00393487800472
C            0.16004544671614       -0.18227394998192       -0.09050467834096
C            0.89110777802387        0.99943929287416       -0.29215085425387
C            2.24782358296393        1.28812507573947       -0.25657176414900
N            2.59328993709689        2.59293418413946       -0.47573814243755
H            4.42267896143286       -2.64544641864632        0.51151046549909
H            5.25954463510338       -1.13912715085347        0.51062875333920
H            2.31476951869831       -2.86054664831581        0.15083133606894
H            0.32461092867072       -3.60428867344644       -0.23386399316643
H           -2.10071809523393       -3.40911899350409       -0.36106771778827
H           -4.42227035079982       -2.59561188302007       -0.48152772952951
H           -5.42760667840354       -1.21978627470634       -0.25604625362982
H           -0.91918728262851        2.47691758866093        0.92744351389330
H           -2.55469827967130        2.89124767916905        0.72904009356002
H            0.28207313047855        1.85286330163815       -0.56026449306085
H            3.56330299056679        2.83336119819760       -0.58842883416203
H            1.90990084328353        3.21943115763153       -0.86202124157609
