26
 energy: -43.236132535210 gnorm: 0.000294057857 xtb: 6.6.1 (8d0f1dd)
N           -5.63356216634622       -0.34843825064729       -0.00783367875251
C           -4.49250736930476       -0.22179253335281       -0.00386041933692
C           -3.08918097799741       -0.06069583438765        0.00033495282821
C           -2.61669181917951        1.26371389448456        0.00602185448645
C           -1.32648502374598        1.71554965520342        0.00700126084551
C           -0.07830085507342        1.03894050973352        0.00302561959016
C            1.05072011067206        1.85179133312847       -0.00021758080525
C            2.36883567643354        1.37765654045827       -0.00348425635526
N            3.41096539722734        2.23112934028175       -0.00766544466204
C            2.55095190333834       -0.01160644196654       -0.00134022042809
C            3.66306119233196       -0.85557912635656       -0.00252590658548
N            3.29500458819013       -2.14640903059196        0.00111981827476
C            1.96778050208044       -2.18319508069711        0.00431985846983
C            1.40384643840622       -0.88604537976106        0.00291349644633
C            0.08304272089606       -0.41170232101460        0.00304653122090
C           -0.95270109871132       -1.35940723515990        0.00161271873188
C           -2.32442138007629       -1.22704417535330       -0.00126495117129
H           -3.39000589315690        2.02358947764951        0.00918509120227
H           -1.22989344541772        2.79570015173128        0.01067007029412
H            0.90922963744318        2.92446167176079       -0.00058510102807
H            4.35009944139468        1.87765395421843       -0.01207597961314
H            3.26239799540025        3.22432995064047       -0.01257785414519
H            4.70633855229676       -0.59447199020534       -0.00612731582342
H            1.46511154207625       -3.13303610619199        0.00812258792803
H           -0.60143276820350       -2.38301692514632        0.00108424014231
H           -2.89089295117438       -2.15141232165804       -0.00471708155408
