31
 energy: -54.655270287998 gnorm: 0.000560969035 xtb: 6.6.1 (8d0f1dd)
N           -5.33459534532177       -0.37357988125601       -0.23810868354604
C           -4.19092539966540       -0.26191966933092       -0.15177006380777
C           -2.79794061170561       -0.14097765837924       -0.04677568547959
C           -2.24689725422584        1.15214303060799       -0.13998286546364
N           -3.10495802586723        2.18209829460743       -0.34380311987496
C           -0.89070056538617        1.49129193594956       -0.01712263647627
C            0.25647806311808        0.71493575355709        0.07635434757697
C            1.50103984855912        1.39469392491536        0.14986558042794
C            1.52641533011618        2.79333247714333        0.25814710692696
N            1.60426855380435        3.93922566116712        0.34866519666809
C            2.75238383691613        0.74104982171388        0.08840520219248
N            3.89713913205659        1.44812041025376        0.16120793552380
C            2.75414670838867       -0.65346579304966       -0.06183554676093
C            3.78726986707943       -1.58997785923615       -0.16250482804686
C            3.21191935918284       -2.86463346719630       -0.25720996516730
C            1.83682547101860       -2.74876594648510       -0.20792112019533
C            1.51252562895152       -1.37499958032184       -0.08788846934133
C            0.26634212501810       -0.75590480341897        0.03247234103698
N           -0.77792706674779       -1.56249031344154        0.14235985663894
C           -2.06925734454328       -1.34535416947428        0.19197474366069
N           -2.78906616592823       -2.45779941031680        0.47203997788365
H           -2.76580421313203        3.12652896403058       -0.36569376894995
H           -4.09518818156362        2.01805272286483       -0.39775376931263
H           -0.71200040544286        2.56178136500072       -0.04635544576862
H            4.78047453577462        0.97891262287431        0.08608085929167
H            3.87380024647189        2.44964630111654        0.25014133017789
H            4.84350654057390       -1.38464331592058       -0.16412783375497
H            3.76334915710743       -3.78286816501357       -0.35110355533036
H            1.12050368306714       -3.54598472142804       -0.25746995121933
H           -3.79329695281620       -2.45484009004618        0.44790431882771
H           -2.28721159935868       -3.32284041818751        0.56524323906206
