28
 energy: -45.864368383761 gnorm: 0.000527918054 xtb: 6.6.1 (8d0f1dd)
N            4.07222606030684        1.50399843702473       -0.60548528481605
C            2.88258875653523        1.02009607912971       -0.15857416259135
C            2.78342045644606       -0.33227105247709        0.17362987905458
C            1.63666762504748       -1.10067643809637        0.36087068708215
N            1.82182126789021       -2.33926559237342        0.86725680855086
C            0.28607008900358       -0.71382428797836        0.04072616822282
C           -0.69852791875591       -1.69791937160877       -0.21910534102973
N           -0.35178647821660       -3.05870401042216       -0.42544438862859
N           -2.00045199862880       -1.47812707677056       -0.28746267644338
C           -2.44883141309935       -0.25171737020748       -0.10534018618684
C           -3.76247419692772        0.23124424044097       -0.09120499531073
C           -3.68888119602392        1.60828047544031        0.05373066250260
C           -2.34955887773756        2.02311181962599        0.13885062871457
C           -1.54323294076954        0.89421581978328        0.06371238877850
C           -0.15719996207473        0.65983612188285        0.10421545143011
C            0.68565087477594        1.78667367107325        0.23285159805889
N            1.95534152287154        1.96380548284976        0.01030578558106
H            4.16508950461534        2.50317682679797       -0.66256533841090
H            4.90345437169862        0.94375989320213       -0.55207803895542
H            3.72413156868333       -0.86029804612126        0.29048463616620
H            1.04135442417056       -2.98276485267969        0.86498262477741
H            2.75410029578549       -2.68158989952914        1.01882515949043
H            0.30450056535579       -3.18324664291500       -1.18859167778266
H           -1.20712477901211       -3.56924731931686       -0.61793532166877
H           -4.65207943159950       -0.36088203473879       -0.18659206085796
H           -4.53513802564692        2.27263312183407        0.09967405597272
H           -2.03126729002579        3.04483807225958        0.24319267029318
H            0.17312106853245        2.71642643259023        0.45994286480650
