27
 energy: -46.961249752298 gnorm: 0.000663077565 xtb: 6.6.1 (8d0f1dd)
N           -2.00713709403329        3.65745344280155        0.17680569385003
C           -2.11933125830016        2.51219782720113        0.11044429006128
C           -2.29797636241619        1.13443959159816        0.02461596181565
C           -3.56356071177820        0.51969530736380       -0.11960516069322
C           -3.41361580365022       -0.85089254782266       -0.20250770758753
C           -2.04310516237326       -1.14406633764196       -0.11976132131013
C           -1.34855669243287       -2.33691201228090       -0.16484348433836
C            0.03759232054436       -2.35572097482638       -0.04026654962522
N            0.68776824930949       -3.57940479988298       -0.03614203303128
C            0.77188955295451       -1.15296700396354        0.12271024678489
C            2.13539421368806       -1.24928597163991        0.48437995117805
N            3.11762466101405       -0.40448325879215        0.36299486487106
C            2.99849674889438        0.86637982309892       -0.03839581215924
N            4.09014416031345        1.41416121653189       -0.59655919002377
N            1.98437678702534        1.69045534785102        0.20030560635864
C            0.73511565740054        1.35434078543151        0.36098902935540
C            0.07427610878413        0.12477289560138        0.12343255984299
C           -1.32113815020383        0.11196153285709        0.03161895005082
H           -4.49321930474329        1.05974006581489       -0.15533661979570
H           -4.20268563374820       -1.57079601510591       -0.31384105495974
H           -1.88110225580345       -3.27070652966146       -0.28764250293384
H            1.61910963033813       -3.61402242033649       -0.41514684519627
H            0.11146642352358       -4.35981091257902       -0.30981342666599
H            2.45796297850484       -2.20340136335122        0.89367825336024
H            4.09802907698703        2.40367809213999       -0.77121414694462
H            4.93946325960134        0.87988642076402       -0.64358522473840
H            0.10426740349983        2.19128515762885        0.64145113457473
