26
 energy: -47.238581234273 gnorm: 0.000675137668 xtb: 6.6.1 (8d0f1dd)
N           -3.22864763721710        3.66803455599532        0.11353764974922
C           -2.79216471048960        2.60722499168218        0.08528393480093
C           -2.27265308026423        1.29210981465914        0.05079954547439
C           -3.21847205075717        0.25151250318495        0.11893628042958
C           -3.01303922012714       -1.09412225616164        0.02249236727758
C           -1.81708508704177       -1.85017114842291       -0.10108738167553
N           -2.02426488114806       -3.15641333198862       -0.35577150732281
C           -0.48072291898023       -1.38626474317631        0.04213058938064
C            0.55254699125885       -2.33072228170565        0.21697542918371
N            1.84955717954869       -2.11011431249762        0.26676029326780
C            2.24089016794750       -0.85635491534089        0.11371546224311
N            3.47674774618526       -0.35732612591043        0.09365075521234
C            3.27485876426560        0.96786267903406       -0.02364263514893
N            4.29303731226313        1.83337863353046       -0.11311743146788
N            1.98530776009370        1.38767917277779       -0.07827872551855
C            1.29066793679226        0.25073298919081       -0.00947717077903
C           -0.09392943513604        0.02101488780492       -0.01116337096404
C           -0.89627976665082        1.16087785208941       -0.05083334890248
H           -4.24927921135763        0.57234848855958        0.21697136912795
H           -3.91172918561044       -1.70123509731672        0.02595140816380
H           -2.96161381968777       -3.51396143761661       -0.42107926416866
H           -1.25969734630999       -3.78953042226134       -0.50524521820030
H            0.30897060250827       -3.37270831282096        0.38871916090843
H            5.22285333593226        1.49047148194734        0.04515611764127
H            4.09514915605489        2.81626109632647       -0.06742181830718
H           -0.32385954747301        2.07972463243735       -0.11906932880500
