33
 energy: -58.882421986977 gnorm: 0.000757303969 xtb: 6.6.1 (8d0f1dd)
N            4.22914362356130       -2.95385439907096        1.00565840981725
C            3.44641160838912       -2.17252370147337        0.69432690908292
C            2.49820792533386       -1.20175709171268        0.30136042453007
C            1.25397501066300       -1.71021680714798       -0.06915047733545
C            0.03275116855322       -1.09563591450187       -0.30254585964095
C           -1.08931763480381       -1.96779387078983       -0.54844719277078
N           -0.86295351598185       -3.29274887393734       -0.87801659674732
C           -2.38003923454367       -1.52547294935590       -0.35739442914810
C           -2.61041031847146       -0.21366252994863        0.04400286096526
C           -3.78687851728087        0.47254011265333        0.35720680274292
C           -5.06726817698481       -0.07269293885153        0.39711090350799
N           -6.12283363331852       -0.53184405122093        0.41693580673537
C           -3.43310906463812        1.82144502269246        0.64260130075241
C           -2.08303651272285        1.99244145149559        0.46807186341298
C           -1.51246409014808        0.74197049168364        0.09180869634379
C           -0.21355139977681        0.32681091175520       -0.17774886040294
C            0.80389833883448        1.31322840553119       -0.45113863092047
N            0.35780601689663        2.46396570202965       -0.98771465498081
C            2.18772469333640        1.22195101725087       -0.21682383832064
C            2.92473680005157        2.40300121619141       -0.44930685880436
N            3.53247870849521        3.35949476595666       -0.64724817984229
C            2.95151582778179        0.13497843453895        0.27534289362371
N            4.21699629784714        0.38247764146523        0.67452979315583
H            1.21990015909304       -2.79349961988544       -0.05040873977570
H           -0.09845847726955       -3.49320305866485       -1.50248974121904
H           -1.69865080965571       -3.81639391270769       -1.08701762043724
H           -3.21350338437586       -2.19818266291535       -0.50347801371543
H           -4.13234724725294        2.57829229029858        0.95016255071912
H           -1.54876436926006        2.90119059205138        0.68076731334708
H            0.99531223721776        3.21144355490623       -1.20716724051105
H           -0.62176320578492        2.56510985891494       -1.19611943237129
H            4.60489500512043        1.30813272837231        0.60490114970406
H            4.81249871419617       -0.37853169320232        0.95563046740295
