25
 energy: -43.504354646733 gnorm: 0.000620742270 xtb: 6.6.1 (8d0f1dd)
N            0.31264501281373        3.90826937611522       -0.00823309469930
C            0.13649718364606        2.77299514253042       -0.00661169026020
C           -0.19838145957147        1.40375847837926       -0.00518934470244
C           -1.58046053382662        1.06790208057260       -0.00449667743555
N           -2.50736001000079        2.03991429908150       -0.00643919786584
C           -1.91263423433124       -0.29010021578247       -0.00084167278261
C           -3.13813152047410       -0.96341821347808        0.00037566172763
C           -2.87962587232954       -2.34068850446806        0.00238141305828
C           -1.51368168366157       -2.55204788564130        0.00220677824430
C           -0.87125922244297       -1.29097291567801        0.00019133404163
C            0.48776693291221       -0.98478301006384       -0.00274220785252
N            1.32505195739426       -2.02346981259364       -0.00880912667702
C            2.63330531532276       -2.01470858340745       -0.01119171594047
C            3.54192970387332       -0.95645248509858       -0.00264315328210
C            3.21899538661606        0.40063011939180        0.00579744713743
N            2.05903813581289        1.00396278151255        0.00348940288825
C            0.83805101941794        0.46048984092612       -0.00240019095373
H           -2.22631749647381        3.00651583824827       -0.00801972406289
H           -3.48347007671850        1.80551068704281       -0.00445064468870
H           -4.11618233954597       -0.51582139479215       -0.00051091775554
H           -3.63313694332585       -3.10724963865472        0.00359090582258
H           -1.00482514588266       -3.49611771731512        0.00330324858992
H            3.05508578237427       -3.01744100284412       -0.01945765594135
H            4.59320618154275       -1.21061953550499       -0.00261026398505
H            4.04997733015872        1.10179221462202        0.01389325547538
