34
 energy: -62.610865982876 gnorm: 0.000856980896 xtb: 6.6.1 (8d0f1dd)
N            3.89801236134313       -3.22379199176048        0.60124626171851
C            3.35855683878153       -2.22864547311119        0.40439236253616
C            2.74478204321109       -0.97667363437242        0.17665581179400
C            1.37176183067612       -0.97994363771481        0.07141797094160
C            0.42613784854064        0.05619564124339       -0.00864298048160
C            0.69768661449472        1.48493043237203       -0.00510613190285
C            1.97328073065708        2.03931452239473       -0.33964383219914
N            2.00363621076135        3.32265114036771       -0.75721842362896
C            3.23354217412069        1.42514688776462       -0.28535711861890
C            3.63010295907792        0.13634159069457        0.02184848153315
N            4.95425175786299       -0.11722108261589        0.12439799548995
C           -0.41426207162495        2.34126470637883        0.23125881659763
N           -0.26697352013245        3.71842203261485        0.45195516509340
N           -1.67808119569069        1.95867472420150        0.24701443830595
C           -1.95866484915514        0.68472596975503        0.05134176062536
C           -3.21849985360755        0.05934171670021       -0.01367253776361
C           -4.47384207681066        0.65919580874842        0.03068378588032
N           -5.53230248273968        1.11034988815578        0.06044418771426
C           -2.99003378066373       -1.33012724324724       -0.12870557806512
N           -3.93909375398215       -2.27992238735445       -0.21624397699979
C           -1.58599745290999       -1.57478657923177       -0.13366153651224
C           -1.06641503632838       -2.85864845119584       -0.25384050797209
N           -0.70411009553667       -3.94826228278406       -0.36176078499876
C           -0.92592449818431       -0.33197647568390       -0.03816316886403
H            0.93160415907895       -1.96946487380081        0.12202027255076
H            2.86457272621849        3.72421099355581       -1.08207315656461
H            1.13860080912128        3.83248162776899       -0.86366626752754
H            4.05643905944615        2.10089960028301       -0.49827955042529
H            5.27863241215560       -1.05543525450893        0.28710181480850
H            5.62874440402952        0.61007263740745       -0.02930889372042
H            0.42351885244333        3.96069617864583        1.15077077269340
H           -1.17537935914508        4.11097709118795        0.67135914133766
H           -4.90906498005125       -2.01997210188918       -0.23742177674084
H           -3.67935220775738       -3.24584568005796       -0.31123688873476
