25
 energy: -43.514763148912 gnorm: 0.000729211492 xtb: 6.6.1 (8d0f1dd)
N            4.16612926942787       -2.00141698438804        0.19297055035000
C            3.14536804873890       -1.48309304659771        0.13267683914065
C            1.86577550908894       -0.88845599558228        0.07106215152771
C            0.73690194602621       -1.67504960888035        0.19181663787240
C           -0.57680028269175       -1.15840609299042        0.11614428318250
C           -1.62040659999889       -2.10679233734901        0.14897561578313
C           -2.94907548386278       -1.96952008546341       -0.18858101939549
C           -3.57627436388613       -0.76658561024742       -0.52025861682670
N           -3.19524470035926        0.43286256721190       -0.18316217844696
C           -2.04555126820769        0.86374812480019        0.28284455239060
N           -2.08344707315176        2.01478373216092        0.96510506875691
C           -0.74768226254322        0.26944121613767        0.03038289823455
C            0.37282451429167        1.07060456278098       -0.13903212962053
C            0.60420504562309        2.45561582200596       -0.31796464602825
C            1.97497435026645        2.59618900087621       -0.40783381368107
N            2.64379466220198        1.43156107062212       -0.26095028872739
C            1.71697392765392        0.49478052734087       -0.12791449238484
H            0.85999811228404       -2.74206875634529        0.31040430012191
H           -1.29185083279260       -3.12190943688880        0.34105783252638
H           -3.54202416954747       -2.87004212032432       -0.26625322706074
H           -4.53269112473532       -0.79974183421008       -1.03152539088519
H           -2.97036460964959        2.45670603545520        1.13701573321775
H           -1.23096992970627        2.43785908880422        1.29110754398968
H           -0.12197587515977        3.23672397514949       -0.44412893787259
H            2.52734175988944        3.50595908422188       -0.56110703706439
