25
 energy: -44.306612655963 gnorm: 0.000287467516 xtb: 6.6.1 (8d0f1dd)
N            4.04080335363592       -2.16268639851979        0.00074593618398
C            3.31353321766480       -1.27819046855555        0.00083034382984
C            2.43994081309898       -0.15506560591732        0.00006765953188
C            3.08450407335308        1.09269140387955        0.00028937103303
C            2.49286681075149        2.33854232941745       -0.00005956009386
C            1.14199357129912        2.65927245613576       -0.00073371888753
C           -0.00370177175049        1.85929653806567       -0.00119195226083
C           -1.24368475750013        2.54927198900443       -0.00190151458651
N           -2.43324364115826        2.00593832563297       -0.00239769831776
C           -2.50063901642084        0.68361888521650       -0.00218727091291
C           -3.63918812482101       -0.13621917449780       -0.00262396117515
C           -3.21369403831997       -1.45458981590969       -0.00216921101330
C           -1.80413529247935       -1.50468212234357       -0.00151162705722
C           -1.07471907850426       -2.69357045568426       -0.00123630034663
N           -0.49284898891168       -3.68685438229357        0.00025902602615
C           -1.31740506949634       -0.17114894936097       -0.00143932122785
C           -0.04092993592340        0.39806747098051       -0.00099362770820
C            1.08578322046123       -0.44667114100433       -0.00045100921454
H            4.16702454745706        1.06016736031965        0.00081316052741
H            3.17178870205512        3.18184414485043        0.00022951436390
H            0.93277416238879        3.72352027456702       -0.00095028282478
H           -1.23345295198714        3.63198214358338       -0.00205720240819
H           -4.65452261059367        0.20891158326633       -0.00324522624510
H           -3.84580883822779       -2.32420897553605       -0.00239246196911
H            0.85111814842870       -1.50526709899679       -0.00040702914675
