29
 energy: -56.006144359588 gnorm: 0.000556906334 xtb: 6.6.1 (8d0f1dd)
N            5.29699798790113        2.97834124219637       -0.67522770745491
C            4.39875243908548        2.27427107089626       -0.54813531286747
C            3.31060836873394        1.40548701264586       -0.39096426630351
C            3.41165022144273        0.02045196475429       -0.13952263144921
C            2.11939055907967       -0.49662762038765       -0.06064262170355
C            1.65045062573456       -1.79096751568362        0.24949715741722
N            2.49133267784537       -2.79606648635351        0.53066312657697
C            0.25321638424412       -2.02629039525011        0.20673353997669
C           -0.21593893093227       -3.33804809271431        0.40052931760895
N           -0.53981779374310       -4.42341813042002        0.59233297702661
C           -0.64996896152408       -1.00404132390237       -0.12918938900759
N           -1.82961897262003       -1.30687068730462       -0.61751928151863
C           -2.87389420858687       -0.56939147712776       -0.88726846381046
C           -3.22041972150358        0.66279055226806       -0.33347060001192
C           -4.53090701028923        1.15104503728022       -0.47709405486970
N           -5.59083362158068        1.58383491100548       -0.57354590368714
C           -2.27792402605517        1.46068768744385        0.39258393751651
N           -2.72824867106238        2.45587550104366        1.17747264422889
N           -0.96916965799600        1.38653884951525        0.25759461736825
C           -0.17387388451748        0.40814270091980       -0.08692145304997
C            1.20214395627007        0.60105747294829       -0.24300080077353
C            1.96142742845923        1.76548929723046       -0.44011992611625
H            4.33845746043688       -0.51179293026630       -0.02334128239570
H            2.13315683595093       -3.72148387071996        0.70316363567628
H            3.48458974673285       -2.65425135846645        0.48292499406415
H           -3.59342967179754       -1.05292461981736       -1.54059357036949
H           -2.06098146648387        3.08263552590951        1.59312208103336
H           -3.71009849000985        2.66963047785902        1.22087279816720
H            1.57361670308481        2.75008471550123       -0.61827584007285
