31
 energy: -59.451885702507 gnorm: 0.000755591867 xtb: 6.6.1 (8d0f1dd)
N           -4.88383166484393        2.61254240812293       -0.22796018863240
C           -4.09565960972970        1.77665092543891       -0.19058723171875
C           -3.17887613699527        0.70909855424660       -0.12840148368470
C           -1.83414471593279        0.99581572839298       -0.16274550363490
C           -0.70789462599272        0.15829363527464       -0.06759451254152
C           -0.71423862105503       -1.30314268574010       -0.09571252815585
C           -1.87103165412381       -2.03499192228753       -0.35244469900724
N           -3.14859466975327       -1.75279726566814       -0.20073333493789
C           -3.74395062909709       -0.61044996590848        0.04513384799858
N           -5.02659987569973       -0.69655482087827        0.43038863585192
C            0.52649660440273       -2.01209877055160        0.00299941520186
N            0.54998519190197       -3.37804067718758        0.03502331424707
C            1.75243266258999       -1.33064813276654        0.04428367426659
C            2.94851414593424       -2.06511346476670        0.15301510204359
N            3.89581970670637       -2.70662333134970        0.25696766376523
C            1.77786047098053        0.07020288954290       -0.00002905235235
C            2.77714180314957        1.03816147781862        0.01311456533566
C            4.16118761973060        0.91975211509469        0.05296729966421
N            5.31145249774718        0.90166260869279        0.08303830525684
C            2.06879090672921        2.29427215564865       -0.02997060358387
N            2.64870911090553        3.50142718962112       -0.02987158384615
N            0.74551708342129        2.13722953047109       -0.06691111012334
C            0.52540446435469        0.80536264289496       -0.05011250590113
H           -1.56698675451285        2.04488246292463       -0.23218920567319
H           -1.74120288391830       -3.05964561878617       -0.69026141088699
H           -5.44439993732876       -1.60785656045511        0.51422486679969
H           -5.58904599455671        0.12944496693565        0.54903260057507
H            1.44531966125035       -3.81125979222781        0.19785652593307
H           -0.25631911912411       -3.89060001897534        0.34252399328703
H            3.64984503757360        3.58097971711912       -0.02013550877508
H            2.07322420848141        4.32230541500109       -0.08181085707527
