28
 energy: -51.466878919507 gnorm: 0.000864342870 xtb: 6.6.1 (8d0f1dd)
N           -2.10521942596215       -4.36207554996645       -0.44756508083184
C           -1.78563945631512       -3.27053119021687       -0.30676515395142
C           -1.40964513174713       -1.91367629780012       -0.13914838939114
C           -2.44861366315033       -0.98427366252697       -0.13972284288214
C           -2.36943993705169        0.37393973332289        0.11553991477144
C           -3.62737753931724        1.01798997745293        0.21083712845213
N           -4.64446314978032        1.54685324735604        0.27885213556003
C           -1.23413139305373        1.22787392025405        0.28282205826230
N           -1.51045842204418        2.44816298513838        0.76686674735857
C            0.12747592574135        0.91517563549114       -0.02363998220704
C            1.04396658831818        1.96597451505071       -0.29090248604506
N            0.58744494405752        3.26702227798646       -0.56310450290540
C            2.42777309771595        1.77950253829691       -0.28058654249970
C            2.94465128592268        0.53584791340898       -0.00200831065298
N            4.20736889020233        0.06970753799231        0.07567124960460
C            4.04348017867573       -1.23457616373689        0.26088420236589
N            2.78011404509321       -1.69390625533418        0.30156620620262
C            2.04019043467561       -0.58903240534814        0.15498087411360
C            0.64109376901814       -0.44666679741547        0.07312713179679
C           -0.05560212354261       -1.65146301711150        0.04831891478985
H           -3.44836663104800       -1.37916919326821       -0.28429375470166
H           -0.76858389914640        3.12401824180911        0.87750378370764
H           -2.45846472650917        2.70135609186781        0.99605911983561
H            1.33726679253439        3.87233269209917       -0.86965979768941
H           -0.19985427017611        3.31691365384241       -1.19559041060212
H            3.08316728236529        2.61227330599860       -0.49183453403395
H            4.87983250582058       -1.90025412195703        0.36971077547532
H            0.59516602540331       -2.51626384538595        0.12343157579686
