34
 energy: -57.796127002718 gnorm: 0.000640950449 xtb: 6.6.1 (8d0f1dd)
N            5.67917187916297        0.55012692533260       -0.88090233146283
C            4.62972602413890        0.19898288975579       -0.56649793722143
C            3.34818504219382       -0.23034524924435       -0.16808698421810
C            3.29506266369010       -1.52727911789588        0.35940317653641
C            2.19105163757582       -2.26851341823562        0.66260077550862
C            0.82817656141296       -1.97902431647034        0.43585290481107
N           -0.00388028236695       -3.03643999111799        0.63441597586699
C            0.24104195921209       -0.72897369321191        0.10768129185721
C            0.94692511269080        0.54425434740337        0.18389540273865
C            0.20881654911593        1.69711645033127        0.53500029038868
N            0.85736608611527        2.91449814522611        0.82035726845274
C           -1.18221000264114        1.68837846678280        0.57924817750189
C           -1.86720680997556        0.57160031431249        0.15805648242740
C           -3.24575476178262        0.33613686233880       -0.04232982646748
C           -4.27762347792935        1.25133166584477        0.11587652610923
N           -5.14661798960913        1.99898392494699        0.23684306719310
C           -3.38026896472197       -0.99492884177123       -0.49492846214030
N           -4.56452669930830       -1.60898031824413       -0.79047219369296
C           -2.11402866819288       -1.60210266506143       -0.51961311099697
C           -1.15447285900180       -0.66146722524682       -0.11910295203243
C            2.30360911648232        0.70934663440978       -0.26057535171889
N            2.61106270264143        1.88007068352953       -0.86058308090533
H            4.25758047523020       -2.00176088053092        0.50903639510913
H            2.38204716180631       -3.26128040583063        1.05295072116554
H            0.37801773086300       -3.85217272473874        1.08404382193140
H           -0.98526829683297       -2.84159114965883        0.77755594520212
H            1.70385705535567        2.81956281763629        1.36533516495529
H            0.22846591733914        3.58694078630591        1.23767113210321
H           -1.71682394529415        2.57962399097676        0.87805508940136
H           -4.52688652544902       -2.43470215233907       -1.36489062249334
H           -5.35973957111429       -1.00861085046629       -0.93899296171126
H           -1.94064649485932       -2.58002307579740       -0.93184435763350
H            1.93879939246378        2.62991147996613       -0.86919442051317
H            3.55676337788869        2.05415277356268       -1.15734306795225
