32
 energy: -59.164439696510 gnorm: 0.000450880227 xtb: 6.6.1 (8d0f1dd)
N           -4.92875800228932        2.61773105237365        0.02953168697889
C           -4.15333331160098        1.76914948250864       -0.00837230469174
C           -3.23628535807072        0.70239954023764       -0.04912122980402
C           -1.88529659175480        1.02271214420582       -0.09058060829390
C           -0.73957589122604        0.22493541671687       -0.04797444562955
C           -0.74405340562509       -1.24008672617105       -0.10663356615298
C           -1.88938294437507       -1.97851838441755       -0.43228397159390
N           -3.17128977298249       -1.73720538122149       -0.32054217848448
C           -3.78943765816681       -0.61525973937356        0.00427731097686
N           -5.08472452601734       -0.75689141317628        0.33579286102966
C            0.47856047716616       -1.95435061796568        0.01181140251855
N            0.49631671705325       -3.32490545201503        0.02452241246553
C            1.71085996268767       -1.27550793209468        0.08652268043399
C            2.89458531342510       -2.02763009786532        0.22145259780103
N            3.81817911536123       -2.69898820575404        0.34654113825545
C            1.74760687721746        0.11704504946741        0.04234012314326
C            2.81153671894055        1.02241140638563        0.07723146209957
C            4.17916585150103        0.76776932851144        0.12671077320371
N            5.32278999583589        0.64176314517139        0.15895724337922
C            2.24891591797191        2.33565802094182        0.03871916612425
N            2.97391016503055        3.47190537932904        0.08267054639621
C            0.85367085181525        2.23291265827714       -0.01957282958756
C            0.50490283773681        0.88025273436934       -0.02084865820629
H           -1.69061181266737        2.08766156968884       -0.10578022970809
H           -1.71563853007557       -2.97909088745933       -0.82118171113868
H           -5.48831846268039       -1.67749064010809        0.30713383849342
H           -5.66828128349169        0.04609497686359        0.49934278674795
H           -0.30839326061418       -3.82835657757858        0.35206369376400
H            1.38880084973593       -3.75715521338996        0.20624647665393
H            2.52912044536082        4.36174806784092       -0.05164751176321
H            3.97658333744231        3.41712511648378        0.03555866953296
H            0.19412642295588        3.07949494301683       -0.05539167064710
