33
 energy: -53.283656099882 gnorm: 0.000728370271 xtb: 6.6.1 (8d0f1dd)
N           -2.26104061912732        3.01141542748479        0.32338423271846
C           -2.21683533831243        1.86179844946259        0.20086839192731
C           -2.20110393182058        0.48410571620421        0.07266167094922
C           -3.35457589395752       -0.31973751945614        0.26593227714474
N           -4.63216583427581        0.17832522881203        0.38812291333509
C           -2.98915517987145       -1.66248155242862        0.22915361861283
C           -1.60489784471098       -1.73101512578195        0.05210416999933
C           -0.71799060792367       -2.80376360142848        0.03695460293865
C            0.62956180521876       -2.56612559596455       -0.04519279914177
C            1.18156413212828       -1.26680860967831       -0.15805752203935
C            2.60780186047458       -1.15241369348106       -0.10514400768829
N            3.34634614052123       -2.28593096238566       -0.31726886195687
C            3.33132615107082       -0.05247938399184        0.34480175148061
C            2.95912337969005        1.28646932572254        0.43282843574214
N            3.88196990109570        2.16397076059032        0.93513978491706
C            1.82259705277142        1.83765077582742       -0.17040825648231
C            0.70502098411405        1.17993704669657       -0.63941231932316
N           -0.09836916964627        1.83934994777893       -1.50567654216734
C            0.28546489181135       -0.15738670355672       -0.26446111383400
C           -1.08319726451844       -0.39062475088515       -0.08394304949224
H           -4.69505609570384        1.14405489616840        0.67348690840281
H           -5.29921261306013       -0.43175507505552        0.83376376900443
H           -3.65441038021043       -2.49726943899433        0.35197823322983
H           -1.08663388544706       -3.81469180026940        0.13980584655323
H            1.29174862648667       -3.41175687019159        0.06136216761423
H            2.94848929989855       -3.02649704383748       -0.86577665739535
H            4.34672638935084       -2.19106527767217       -0.35128590841335
H            4.36321608265356       -0.25873295918454        0.60987414579751
H            3.57956073500668        3.09991682889504        1.14259754787970
H            4.63054331227392        1.80001229049826        1.49842944743201
H            1.84459893035170        2.90994837013984       -0.32361561653091
H           -0.03069680055476        2.84137982002278       -1.57549969778277
H           -0.99844015827701        1.44086698693968       -1.72098400513060
