33
 energy: -53.276648810236 gnorm: 0.000651250772 xtb: 6.6.1 (8d0f1dd)
N           -0.73226189149807       -4.30790196547141       -0.33596089240784
C           -0.34482983051619       -3.22517608938965       -0.26583087334742
C            0.17889064568522       -1.92638158055017       -0.18111512015891
C            1.56972915089197       -1.80551184873883       -0.21557718963889
C            2.13381581284282       -0.56318694962494       -0.07975884638043
C            3.48822785807519       -0.13283956282171       -0.00914203196999
N            4.58515926260885       -0.95350493785985       -0.03555971445515
C            3.48670656780803        1.24200619343677        0.20009057569035
C            2.16421513176806        1.70560191597722        0.24280609127975
N            1.81765869154113        3.02403035934706        0.46565267481387
C            1.28911974009703        0.60793465745983        0.03504097525926
C           -0.10680287911658        0.52487177487424       -0.07559827105836
C           -0.83573435563862        1.70882571363343       -0.29043093729992
C           -2.19543038731742        1.98993643771433       -0.25933290386881
N           -2.54746517947185        3.31185559488916       -0.45147665622508
C           -3.24347843226899        1.11575558375220        0.04507485319357
C           -3.18025594519795       -0.26328579713423        0.20286664622313
N           -4.36957275452938       -0.91770076494654        0.40597002511859
C           -2.05122703130827       -1.08285423949872        0.07581320526764
C           -0.69499467086935       -0.80216651210160       -0.06501088269592
H            2.17019315616019       -2.70024230702730       -0.31452504624311
H            4.45555062640093       -1.86304469533934       -0.44743776660168
H            5.46986216625103       -0.51642925295385       -0.23633560219532
H            4.36015858230786        1.85704124916708        0.32778681897013
H            2.57774742168164        3.58193726873316        0.82979603359411
H            0.95501463458442        3.15318225943973        0.97642369235317
H           -0.21950204903317        2.55920140006404       -0.55191642740419
H           -1.86831874982560        3.90204131724489       -0.90318937948667
H           -3.50485329560255        3.50092201871069       -0.69746472202528
H           -4.22885803369801        1.56128092557873        0.11590815821898
H           -5.16754862194791       -0.38427643498042        0.70318535016305
H           -4.33831024700266       -1.87975699624040        0.69618974689952
H           -2.28122714576167       -2.14218114094381        0.12851794281795
