33
 energy: -53.262233131523 gnorm: 0.000847796238 xtb: 6.6.1 (8d0f1dd)
N           -5.26988898944444        0.21962166049474       -0.87861018538021
C           -4.17349070140236        0.37955568496005       -0.56674048400531
C           -2.83768575819513        0.57535726638252       -0.16871014289870
C           -2.55963388776796        1.83796835533821        0.37375504833474
C           -1.34268904459032        2.37062716254400        0.68264067068673
C           -0.05188008798759        1.85158866522962        0.44326480015249
N            0.95467893460142        2.75115649212617        0.63822938280220
C            0.30923516424069        0.52376641074021        0.10437726487402
C           -0.61039363027265       -0.60787409930866        0.17320994197311
C           -0.08125820567570       -1.87145422685394        0.51806746938223
N           -0.94036497091764       -2.95834804411756        0.80594710370072
C            1.28759097012569       -2.10699766720442        0.56376649828462
C            2.16907757659456       -1.13116386484579        0.14760349609494
C            3.55213409533120       -1.13373389570577       -0.04967161097474
C            3.91617637691320        0.13671331617656       -0.48823621803963
N            5.19428688265149        0.55957365076682       -0.78320889526588
C            2.77593937514787        0.97105569295018       -0.51448249270990
C            1.66932461184841        0.21458558326155       -0.12612814101466
C           -1.97208720775598       -0.53097499492935       -0.26923478813557
N           -2.47850243122259       -1.62677321918055       -0.88387988383768
H           -3.42500993845915        2.47078802741924        0.53176828056601
H           -1.35649429020541        3.37721449127923        1.08497280813702
H            0.72238132664980        3.60205386241836        1.12448030520788
H            1.88268658158686        2.37402691241752        0.78214896922625
H           -0.43599048265369       -3.72665082008126        1.22804708818399
H           -1.74192819392808       -2.70517286150916        1.36955605137168
H            1.64882575267997       -3.08183636433383        0.86457051021335
H            4.20954041732922       -1.97350323961936        0.07711673401655
H            5.25844468986363        1.36701466702961       -1.38345567837755
H            5.85208517335852       -0.17042114438859       -1.00736432631717
H            2.78330365900546        1.96567787744058       -0.92373949757550
H           -1.95653234834629       -2.48802975116942       -0.86527914473016
H           -3.44923943600290       -1.64052704152768       -1.14849716894570
