25
 energy: -47.511604209631 gnorm: 0.000799614690 xtb: 6.6.1 (8d0f1dd)
N           -3.10934940661122       -2.86930019605220        0.58274361761972
C           -2.72287428238593       -1.80785938776153        0.37891648569550
C           -2.30120918114802       -0.48537213728353        0.11626721093784
C           -3.19635537621997        0.53956172565981        0.45693199025372
N           -3.19026501361731        1.79739197253314        0.10012944042606
C           -2.20039228324437        2.38374413220265       -0.56130123894543
N           -0.93096578895447        2.13422992190048       -0.52696442749218
C           -0.30540652082151        1.00699071835133       -0.20737129423347
C           -0.93039085436238       -0.32916911873689       -0.24163726920688
N           -0.22955198792226       -1.43208865270461       -0.39670544945202
C            1.10933770473926       -1.42913153969122       -0.34254067215995
N            1.70954842914459       -2.60610197035071       -0.61318047810354
C            1.78821263568011       -0.27140960821014        0.04332677659003
C            3.12578757169556        0.09519366627226        0.30150097755331
N            4.22234297963122       -0.70313387173921        0.37053014913490
N            3.24719326817678        1.43877504104469        0.44373669821168
C            2.04314974900579        1.96554353665006        0.29654749522422
C            1.05956132693626        0.97695952297840        0.05959666739341
H           -4.07226421659556        0.24613188156344        1.02952645884236
H           -2.48363669596904        3.28568829273527       -1.09709771852852
H            1.11975220139803       -3.33934549657791       -0.97177602369349
H            2.69354787871425       -2.63257789478227       -0.81331186013676
H            4.10041824318513       -1.64945688427666        0.69322241940186
H            5.05562875964262       -0.23208069853387        0.68896153789705
H            1.89129380939927        3.02568600740547        0.36851766547089
