32
 energy: -53.562812537633 gnorm: 0.000640632522 xtb: 6.6.1 (8d0f1dd)
N            5.65250300434706        1.01715717030796       -0.04109669856872
C            4.53718653445094        0.73055935706047        0.00053315368208
C            3.18098331472956        0.37426566218990        0.05242611263789
C            2.29082095550349        1.40154933779013        0.40631295726099
C            0.92554353809704        1.41556706926273        0.43774487787249
C           -0.01937264277181        0.39533181725177        0.15505473216221
C            0.31040402226483       -1.02138101346603        0.07654888378322
C            1.59324535106869       -1.55522482873597       -0.10166834052410
C            2.85575076109929       -0.98249692898039       -0.19922433743755
N            3.88268616776991       -1.80768397463858       -0.54892785702231
N           -0.63386973714011       -1.96597444782108        0.16034149439976
C           -1.92632540363120       -1.66072140450719        0.18825011078985
N           -2.78806286209649       -2.72117126532877        0.32056246395512
C           -2.36499330790258       -0.35059351423580        0.01208951071795
C           -3.63275862391662        0.25080148442908       -0.12507671053047
N           -4.84250531307025       -0.40321381046987       -0.15554249374729
C           -3.44651488492900        1.63765257004415       -0.20695328488099
C           -2.08913125401846        1.92980778164783       -0.13146009406610
N           -1.55451221762581        3.19375913609611       -0.20309280340766
C           -1.37101441246004        0.69845991492662        0.01899625422344
H            2.77836596725026        2.33617033901015        0.66506144659395
H            0.48388044066166        2.34968419864866        0.75705181383672
H            1.56973635722810       -2.63193000578328       -0.22793227340331
H            4.82965151101856       -1.47416357143905       -0.48869980666144
H            3.72745627160394       -2.79910044664993       -0.58217839086687
H           -2.32771115519346       -3.57957629394767        0.58420039695381
H           -3.65809614922971       -2.53598688470727        0.79293104038972
H           -4.82365155546773       -1.32963028193346       -0.55475306095241
H           -5.61883310160131        0.15894923880398       -0.47133112964472
H           -4.23142625453307        2.36198254720217       -0.33457010674587
H           -2.20359483690594        3.90383341085053       -0.50838872588055
H           -0.64097191560053        3.26721185202194       -0.62474207181913
