32
 energy: -53.556160789996 gnorm: 0.000480833667 xtb: 6.6.1 (8d0f1dd)
N            5.14017242395837        1.08629679839441        0.04999296848388
C            4.09652313067517        0.59713539534667        0.04584872339107
C            2.87440999765733       -0.06224302941737        0.06070004796373
C            2.71948981151490       -1.47384536560072        0.24744747365824
N            3.77205480767708       -2.34344321211950        0.36612681478363
C            1.37453523702478       -1.80142601096070        0.19976931286562
C            0.62699135181846       -0.61157821999019        0.01521921892668
C            1.59251289817355        0.48092641886483       -0.04799290165688
N            1.24956986624599        1.74996195117852       -0.25479731281497
C           -0.02759990436439        2.04686496589798       -0.26274764488747
N           -0.31162047070158        3.39833717893169       -0.37853043661201
C           -1.09170875481160        1.09186678024660       -0.08839920178728
C           -2.35008482473015        1.60737437968904        0.21872970238161
C           -3.55419856714772        0.99151656832853        0.48180942381187
C           -3.90044232491141       -0.34866094981419        0.27961768942014
N           -5.20517813152668       -0.69118196537805        0.48435054656422
C           -3.05645078459281       -1.34326805203071       -0.22277576637145
C           -1.68321109569725       -1.35208726057670       -0.41099844138823
N           -1.16129079525625       -2.49617144255327       -0.91909936055950
C           -0.72676635654310       -0.31142167686511       -0.11930538298273
H            4.65895975803763       -1.92901735016128        0.60615810278203
H            3.58182613256718       -3.23417150208595        0.79579833436430
H            0.99094688302074       -2.78631621938067        0.39958962293873
H           -1.06438038564470        3.65343763177313       -0.99860847712720
H            0.53347480847809        3.92970164376041       -0.53425313728140
H           -2.36541378851634        2.68133020986778        0.35567246585893
H           -4.35479672303413        1.63263887164830        0.83004507841207
H           -5.46850630893283       -1.66040704689545        0.49005223352850
H           -5.80981108989617       -0.04554234280537        0.95987813796755
H           -3.55157805983349       -2.28026040942130       -0.45963081596797
H           -1.77940800168821       -3.20037740954273       -1.28285904805144
H           -0.20415316232061       -2.48665930092824       -1.23287447891412
