29
 energy: -50.404527959497 gnorm: 0.000577178299 xtb: 6.6.1 (8d0f1dd)
N           -5.22249537742256        1.73025269432662       -0.77449802990381
C           -4.19929667016371        1.23817879187597       -0.58359246238757
C           -2.98908642056801        0.58662491575296       -0.34946934733731
C           -1.70791062801339        1.14159417780145       -0.36259666966082
C           -0.77901966359772        0.11991809259340       -0.09884851857307
C           -1.51028758062630       -1.10530310466364        0.08878498834991
C           -0.83585997434648       -2.27600844442452        0.41594184850788
C            0.53845346564681       -2.27038319838931        0.46714708348250
C            1.30469257932880       -1.11956498776819        0.19351288570254
N            2.59425395736593       -1.32863973662584       -0.01245137099290
C            3.56745197135933       -0.45690789186858       -0.25127130360221
N            4.72736109437887       -1.05865340160243       -0.63554195484083
C            3.58150709874017        0.92252163527418       -0.02713446556493
C            2.45315103149073        1.69697169366439        0.27255802829208
N            2.63945968212118        3.00716902362332        0.58806978446250
N            1.17300362457455        1.37004060900234        0.17236256374314
C            0.61442412114034        0.17768058182068        0.05167283732896
C           -2.88293886380780       -0.80694412899836       -0.06290756181730
N           -3.93067836828555       -1.65022620390063        0.09086865230108
H           -1.47133939009333        2.17039340264104       -0.55695248543393
H           -1.37626045802311       -3.19501487951818        0.60172127569754
H            1.08495702705281       -3.18116035582416        0.65827728569426
H            4.68182850484202       -2.03797111701249       -0.85527352284832
H            5.49156378086994       -0.51415909012341       -0.99066492531394
H            4.53604983459424        1.42935905764296       -0.08347945140682
H            1.82611869278320        3.53211996559718        0.85728415281615
H            3.54889198122404        3.35225442997094        0.83331893989281
H           -4.84812441567460       -1.33031298355450       -0.16987105027514
H           -3.76532862599072       -2.64070420061209        0.12147987258712
