34
 energy: -63.407867971216 gnorm: 0.000930934186 xtb: 6.6.1 (8d0f1dd)
N           -5.33377992123883       -1.94346221100114        0.79435993031590
C           -4.34875800984521       -1.39918326593972        0.56011693637196
C           -3.12849703549105       -0.75507852017525        0.27218894465134
C           -3.11876391343611        0.62991980758963        0.43749347568686
C           -2.12243750047026        1.55080145482251        0.18257016304921
C           -2.55771562741613        2.88924468356659        0.33411048073501
N           -2.95429150095299        3.96040604595351        0.45331882273170
C           -0.72959257160213        1.36060882826261       -0.10528011019519
C            0.03283293274858        2.49282889331488       -0.33640557960463
C            1.43321258646894        2.48436995203518       -0.43790458793463
N            2.10123906748119        3.61986559775079       -0.72053556936386
C            2.08346613490098        1.27466614374661       -0.17279317213505
C            3.44369128857597        0.96787243713135       -0.03979854014634
C            3.55583327358798       -0.37558797288632        0.31599374888719
C            4.72968289264771       -1.07784678807502        0.59795629148534
N            5.67493387882088       -1.68324553881117        0.84700702407512
C            2.25546252635984       -0.95026458073083        0.38426164182197
N            2.04548133639214       -2.18100589958236        0.87883146583342
C            1.31339472869973        0.07197410061831        0.03593529653254
C           -0.08017147789496        0.05916811302216       -0.10574554110902
C           -0.74642570761776       -1.16230479702576       -0.41714547236524
C            0.05599332270720       -2.12096990683468       -1.06361563502834
N            0.65951259600815       -2.92044080964119       -1.63206579284011
C           -2.09080276793109       -1.56470017028947       -0.25065519118036
N           -2.41047529121511       -2.84393809296000       -0.55812795960571
H           -4.06390862906790        1.05031636134305        0.76614555197655
H           -0.46999199884737        3.44514679498548       -0.42405254455120
H            3.10443854919050        3.63034128637417       -0.73305481765854
H            1.60392455194407        4.48538436771714       -0.83113033507327
H            4.27356007101776        1.63891350491046       -0.16557030201919
H            1.13793240910017       -2.60847653057688        0.89065565567197
H            2.84667383416773       -2.76125188281617        1.06562281706210
H           -1.73861556072433       -3.44836263864085       -0.99989130508287
H           -3.36763498566078       -3.14713867395759       -0.49156186199085
