33
 energy: -58.079327074144 gnorm: 0.000668607869 xtb: 6.6.1 (8d0f1dd)
N           -4.53438528339758        2.16067026449512       -1.18035342635795
C           -3.61460418354346        1.56960345859535       -0.82294560507952
C           -2.49636717815604        0.83720057318555       -0.37722928899321
C           -1.36577356083795        1.60021073415584       -0.08393913569574
C           -0.05847139372762        1.25275266089227        0.20705384072640
C            0.84628805198336        2.34118646456331        0.45796771793387
N            0.34230512271963        3.59938882900216        0.72961316893970
C            2.21420195115516        2.18314883255717        0.34594687597761
C            2.73393181767629        0.94555362886208        0.00294278283248
N            4.00488999913861        0.62834406080908       -0.22309988919165
C            4.00455123817364       -0.69948866821334       -0.48787823883814
N            5.17455956065735       -1.34188733112528       -0.74442782191066
C            2.73180688827874       -1.28057500347816       -0.38776260684930
C            1.85750100346303       -0.23108255731725       -0.07598543942051
C            0.47849457915699       -0.10328350586674        0.14411469081576
C           -0.30076244106179       -1.26365659523468        0.41152843478573
N            0.38128806197902       -2.35588516924438        0.81993806178275
C           -1.70632342811211       -1.43872542200081        0.29799174565270
C           -2.18794924477564       -2.71991773396109        0.62696639680595
N           -2.59943646237119       -3.75769015700914        0.91202286116778
C           -2.68871473110685       -0.55151978905331       -0.18867968259307
N           -3.91907589733178       -1.04784971677586       -0.44501196133483
H           -1.54266180412061        2.66500440652066       -0.18777267518710
H           -0.49574143602328        3.66224744985360        1.28381835420256
H            1.04009628526581        4.28734572070231        0.96432362087486
H            2.87838353220194        3.01982822291838        0.50176309004400
H            5.13374746761773       -2.22914209452462       -1.21630841809536
H            5.95731683636500       -0.74698065540115       -0.95934721117637
H            2.51168366438056       -2.30279317046680       -0.63150583402881
H            1.35466219362700       -2.25647951211256        1.05776467839683
H           -0.11362422126877       -3.18837211476068        1.09281763210488
H           -4.65849171658655       -0.43045368819318       -0.73513904591767
H           -4.12496350061876       -2.01736713397297       -0.27439624067647
