30
 energy: -50.127575218018 gnorm: 0.000525899798 xtb: 6.6.1 (8d0f1dd)
N           -5.15756969484231       -1.39068155151110        0.04077398988430
C           -4.11153891695745       -0.90825352170106        0.01393279986987
C           -2.85353208005345       -0.31550551499119       -0.00526210227136
C           -2.60539894451084        1.07780434732922        0.00401328965644
N           -3.55775468808514        2.04183891149304       -0.03396539809536
C           -1.20086385830778        1.27682743363587       -0.00365776654081
C           -0.39715755343310        2.39937419796300       -0.00057480469121
C            0.97513197948729        2.23223970572234       -0.00647346482024
C            1.62239097001408        0.98310598918126       -0.01630394416530
C            3.03114963438867        1.00177148090727       -0.00895714909776
C            3.95334471214651       -0.03606411561782       -0.01189145912191
N            5.27620615876350        0.30342267034258       -0.04481182854122
C            3.66147104411008       -1.41614580573373       -0.02728643565554
C            2.41258759693270       -2.00118324722378       -0.04429487711409
N            1.19365327520402       -1.51374562454627       -0.03991062284230
C            0.80255601516415       -0.21788056841567       -0.02444867550405
C           -0.57537645244797       -0.01981564466900       -0.01572025840861
C           -1.61077010772775       -0.99775762714915       -0.01887084700389
N           -1.37462250817150       -2.31118963153161       -0.02599837143781
H           -4.51373990453199        1.77549906351694        0.13104625585090
H           -3.29416284254489        2.98974441225118        0.16864738620512
H           -0.81507017140340        3.39697330420513        0.00423631721634
H            1.59918848009040        3.11557962445891       -0.00361773952391
H            3.46794224940581        1.99522536285014        0.00132141748739
H            5.96708536131967       -0.40574512046191        0.12451266773228
H            5.54333203661114        1.25709662819347        0.12404497256141
H            4.51202077100749       -2.08533155374559       -0.02980736820746
H            2.41035836934430       -3.09121388459994       -0.05899041736212
H           -2.11946781055124       -2.98489798651247       -0.04414728373396
H           -0.38259663392096       -2.54524790104008       -0.04406307412518
