27
 energy: -52.537656063138 gnorm: 0.000990766489 xtb: 6.6.1 (8d0f1dd)
N            3.95242485317751       -1.37154808844184        1.11858448775082
C            3.17855913584349       -0.65970233826383        0.65905248977857
C            2.25375359454593        0.31968856571805        0.22406071654402
C            2.71710753544153        1.62532780424374        0.37247101228291
N            2.20084780806495        2.74320323639728       -0.08188492464149
C            0.97035342395912        2.94271414943509       -0.47604342648912
C           -0.16690991339188        2.15247619433810       -0.26872904917082
C           -1.37050655521143        2.83606455815751       -0.54974006719959
N           -2.29542430266290        3.45928492893242       -0.82259239455396
C           -0.22586164010319        0.75054526062097       -0.00667519161167
C            0.93360351613015       -0.11741668239292       -0.11684208239695
C            0.73452119866536       -1.48281717004374       -0.40143106633095
C            1.80083378283487       -2.30377525435124       -0.83263140263679
N            2.57427094216032       -3.01888765974925       -1.28743101352972
C           -0.53194815731221       -2.08990366408877       -0.34582090800624
C           -1.59609898676257       -1.31889850287187        0.02958010628925
C           -2.98334868904129       -1.57556863300212        0.28782203037760
N           -3.61857563823444       -2.74700759172347        0.24132119185554
N           -3.62722265992402       -0.43862585972084        0.61592966457848
C           -2.74935295532457        0.55463414626534        0.55365188984679
C           -1.45315908201285        0.11130109845560        0.19438630979292
H            3.69117862505412        1.75005863295910        0.83589925205701
H            0.81013802948405        3.91323153762856       -0.93672263635490
H           -0.61817648826560       -3.14461999531187       -0.56408411674039
H           -4.60356042485433       -2.76338059053898        0.44423240031691
H           -3.13849326217683       -3.59378682815613       -0.00519135413700
H           -3.06284442198377        1.55044208360576        0.80211769803003
