33
 energy: -58.104008758553 gnorm: 0.000481239576 xtb: 6.6.1 (8d0f1dd)
N            2.67367090197718        4.21265436322134       -0.28077420738447
C            2.02495299692840        3.27064167304396       -0.17256456193720
C            1.21556415172578        2.12854315208434       -0.02972967696288
C           -0.15778261798952        2.26624110000242        0.08896392237474
C           -1.00835926839139        1.15810682743979        0.22433574890793
C           -2.42795886744159        1.38993024007892        0.26203376923952
N           -2.88946499720754        2.55053760985526        0.76688482714934
N           -3.34414189332376        0.63389546110528       -0.29973172085953
C           -3.32799873350517       -0.66335392714368       -0.53695687969322
N           -4.32298700787103       -1.11716445404650       -1.33124272051344
C           -2.51245200509517       -1.59274463267356        0.13980809821456
C           -1.26591800877298       -1.32022477154465        0.65983752238989
N           -0.71168014807560       -2.19354855762231        1.52513097042518
C           -0.45906116797782       -0.15772995459821        0.30455795072249
C            0.91487927657822       -0.31057558918491        0.11533736313847
C            1.75501280382142       -1.45280093298129       -0.03082727959629
C            1.39798806801870       -2.78767508386536       -0.12133347225810
N            1.12709797394302       -3.90800272627327       -0.21041364524435
C            3.07938440112705       -0.99045609735774       -0.24716578614832
N            4.17019753583072       -1.80566861951019       -0.37309934613572
C            3.08798453085969        0.40679433651508       -0.23361350555895
C            1.78149574459648        0.84233414707593       -0.04741148303500
H           -0.57938938501194        3.25822598571913        0.00908464787626
H           -2.27238595363514        3.21662364033060        1.19283122839127
H           -3.87447254849639        2.74075433926828        0.71267489515128
H           -4.89790879613465       -0.44793950054373       -1.81098404411773
H           -4.35662679738801       -2.08242571984710       -1.60136370259125
H           -2.90008096661616       -2.59514429966124        0.26264464855272
H            0.26172943428863       -2.09013186946428        1.76194030890706
H           -1.09239954934344       -3.12248028542291        1.60112773283904
H            3.99087580242470       -2.76762459182056       -0.61390759077548
H            4.99520763167249       -1.39981388142289       -0.78258627554500
H            3.94955254738484        1.03220291944407       -0.37435410452275
