29
 energy: -51.199398994386 gnorm: 0.000549881157 xtb: 6.6.1 (8d0f1dd)
N           -2.10275631248449       -3.23700323168889       -0.88617500964141
C           -1.33013377228526       -2.46735080316559       -0.52405561780271
C           -0.27037580640742       -1.58989908836253       -0.21055802323422
C            1.00201481707727       -2.18756162273229       -0.11761472791384
C            2.09028152223000       -1.38348363077779        0.08240172399205
C            3.48916214060863       -1.63581821525413        0.20783265191889
C            4.15327228922022       -0.43653607678908        0.25968254032137
C            3.20897133748223        0.62266473982887        0.16875846804114
N            3.42312743508527        1.94092128298145        0.16936956360371
C            1.91383257668726        0.04264852690234        0.07670902944291
C            0.68011308120140        0.67382003736888       -0.08659289955318
N            0.73232218135123        2.00615256911563       -0.24590756584467
C           -0.25457845424870        2.84391723573493       -0.46863488757975
C           -1.62404453719373        2.70767437468755       -0.39199033696114
C           -2.35607395698414        1.55617478611752       -0.04807888693384
N           -3.68978915364773        1.71262826800695        0.11084294664401
C           -1.82054825203455        0.25679288026941        0.11414799011462
C           -2.73935430652151       -0.67215204905090        0.64422603875854
N           -3.53859190340679       -1.29826715787956        1.18753237397555
C           -0.48736812917517       -0.20102301560371       -0.10276208229758
H            1.08408879415104       -3.26120882617079       -0.20428585718949
H            3.93572490054818       -2.61242461820354        0.24216215165604
H            5.21499251100440       -0.30025786878558        0.35642292897051
H            4.35090931603415        2.32338608743081        0.11406982795085
H            2.58871413023188        2.49671960354908       -0.00520507195916
H            0.10508390121675        3.84110721347813       -0.71739012244893
H           -2.20835900230268        3.60363308910272       -0.55731106098914
H           -4.26868937096239        0.93347129917893        0.37502285557008
H           -4.10243280277593        2.62484841331067        0.03736955078863
