32
 energy: -53.550536177657 gnorm: 0.000433188461 xtb: 6.6.1 (8d0f1dd)
N           -2.51615687225552        3.68477450603417       -0.08970563735207
C           -1.88302413612060        2.72564580597826       -0.02925540535682
C           -1.08233039566883        1.57254799664922        0.03372585714132
C            0.30642721252721        1.69570300176066        0.06967442541567
N            0.85773155123215        3.00774743837788        0.04689147593848
C            1.15219245367327        0.55225228564596        0.09056987920557
C            2.57446298718213        0.72617316955505        0.17841070685360
N            3.05789594893124        1.83016932405745        0.78430882510550
C            3.53152845524129       -0.11299333961520       -0.43078333177530
C            3.35684305731705       -1.42005094293613       -0.81421790289198
N            2.44896537845308       -2.25243725001933       -0.34728370940594
C            1.32738603643359       -1.95438414373807        0.25631985156585
N            0.81956693886378       -2.90761123052418        1.05531333077719
C            0.53464667498085       -0.75145508304542        0.06729461636334
C           -0.84832986852041       -0.87679949835560       -0.00144458529380
C           -1.71702841282296       -1.98252546767489       -0.10914789964340
C           -3.02199794607294       -1.50270732693031       -0.16111039498544
N           -4.16151559026064       -2.27659660575997       -0.20859632198534
C           -3.01342543515198       -0.09117088795252       -0.06778611037800
C           -1.69584877937436        0.30902278337934       -0.00025175405065
H            0.11471673900127        3.69922091878842        0.03307126042698
H            1.46332205099225        3.15575026854401       -0.75355760448920
H            4.04022356396129        2.03614596046571        0.72597579256916
H            2.40981971531121        2.55204103376551        1.06995079361893
H            4.50377810595873        0.33206447848315       -0.60446340376729
H            4.11127822786180       -1.89386974898772       -1.43201352955065
H            1.30577523431005       -3.78358795093958        1.13604905746164
H           -0.09607469048220       -2.79026615350949        1.45323410149306
H           -1.44333718783976       -3.01629401495865       -0.22285920629798
H           -4.04472475650666       -3.20239313827605       -0.59028795487882
H           -4.99056533157882       -1.80169062307302       -0.52993262263906
H           -3.87915186387685        0.54470905571175       -0.07203751249411
