32
 energy: -54.356377882194 gnorm: 0.000660717832 xtb: 6.6.1 (8d0f1dd)
N            3.68685434218569       -1.54699416952204       -1.35134480511403
C            3.06113834204556       -0.76565702076405       -0.78615337241312
C            2.34628652340334        0.31159693654069       -0.21355400289317
C            3.10385258872357        1.48569470039070       -0.15385982833594
C            2.74121352928179        2.73137250934847        0.30343925461234
C            1.46060319064653        3.13703474006810        0.69392832533806
C            0.27494844370181        2.46092820727834        0.58717404275420
C           -0.01455204072026        1.12872316875722        0.18299070657952
C            0.97843484596790        0.07452451255417        0.10275914823719
C            0.55280676783621       -1.25616747498640        0.26276539197060
C            1.46598542331983       -2.27872654998844        0.57407482551703
N            2.08810846502195       -3.17405013758870        0.94403099153327
C           -0.81981569177593       -1.63650509559298        0.24221063849187
N           -1.16830629002584       -2.94253199851524        0.41253468065304
C           -1.74671219237509       -0.64272190128852       -0.03132184928847
C           -3.14657212216236       -0.67668626779887       -0.24191566035783
N           -3.92981896537103       -1.80434803645685       -0.30900151767873
C           -3.59963623351558        0.64065845297552       -0.36107052460085
C           -2.52284722720769        1.51583061947849       -0.23730462619589
N           -2.60944608595439        2.88104976146531       -0.32865823227904
C           -1.33706763760122        0.74615391741555       -0.02095333188574
H            4.13218652730102        1.37064950307171       -0.47837900971041
H            3.52313309997398        3.47633219165781        0.36052033522749
H            1.39277694524658        4.14298031731289        1.09165102356375
H           -0.59594357033119        2.99630917166984        0.94221599604483
H           -2.09814715665638       -3.13401126953672        0.74596109555816
H           -0.44182897068593       -3.56784748374312        0.72890166657205
H           -4.86875020098042       -1.64337792998161       -0.64293097810303
H           -3.49343695836981       -2.61807618460046       -0.71598948787883
H           -4.61725557013127        0.93218202708158       -0.54962871168423
H           -1.79613445043502        3.35885296055299       -0.68677505954755
H           -3.48616301935647        3.22651617914471       -0.68931787598640
