32
 energy: -59.173925780395 gnorm: 0.000945109511 xtb: 6.6.1 (8d0f1dd)
N           -5.76042910032035        0.29979635486512       -0.38160869615969
C           -4.63330247602523        0.08985469184046       -0.28181804044508
C           -3.26868353944724       -0.16397746927206       -0.15970558128835
C           -2.67720383512092       -1.44084751393506       -0.04479658917276
N           -3.33429802423422       -2.61147293797113       -0.01345024315790
C           -1.26284958564986       -1.26361801310537        0.05327851309718
C           -0.22487179099787       -2.13110445869661        0.27799461204528
C            1.08158665371602       -1.62161476790396        0.30405242705021
C            2.08299486898619       -2.55356669757937        0.64970650288550
N            2.78839278909820       -3.37137761134123        1.04087273170587
C            1.38513546528017       -0.25555362334592        0.08214762390750
C            2.71954625329243        0.11172470788170       -0.23744802888903
C            3.62196722978097       -0.89912356106121       -0.63689555408932
N            4.40841711029534       -1.61826291108090       -1.06732339364920
C            3.28029235174883        1.39443195065644       -0.34894475446045
C            2.71363272325164        2.61607890236209       -0.10934801077689
C            1.36027515660816        2.85192296601510        0.25028634459000
N            1.03593725231231        4.12966027207523        0.58278278530643
N            0.33593265227248        2.03273202809441        0.21765448186634
C            0.28433041378932        0.69409717042204        0.07633668827403
C           -0.99469286243365        0.14867289634941       -0.01201479411379
C           -2.24592162752932        0.81828448721492       -0.12705878733483
N           -2.37293298297522        2.14437034535397       -0.18925949875347
H           -4.33481519811878       -2.63022416784309       -0.10732557983841
H           -2.83020865754188       -3.47771083988399        0.04218062168656
H           -0.37234625733328       -3.19088820720449        0.42999599711314
H            4.32526595865470        1.39957502291155       -0.63767279805690
H            3.34482472880633        3.49025206938013       -0.18849576943930
H            1.75998016521642        4.80504838540678        0.74698154846103
H            0.12144098011613        4.31112981886494        0.95848442778108
H           -1.50065612869263        2.65686071690956       -0.11293238135525
H           -3.27288254597223        2.58608660497312       -0.25927260985646
