31
 energy: -54.663630549504 gnorm: 0.000511783976 xtb: 6.6.1 (8d0f1dd)
N            2.44820113896918       -3.52961828153224        0.48185141115426
C            1.74733754616128       -2.63293448238378        0.33594099421113
C            0.84388165150596       -1.56622619024171        0.15211531625536
C           -0.51662536242718       -1.82609448477038        0.09145825621544
C           -1.49929014129187       -0.83097471674344       -0.04707663314226
C           -2.84561055859486       -1.31602012932177       -0.23480802330156
N           -2.98138642793255       -2.57861402923521       -0.71687556062682
C           -4.02748116427510       -0.67537328291726        0.11540505539060
C           -4.21800341118737        0.64068273985038        0.49981298545220
C           -3.33049969793689        1.68500769953985        0.42851383007788
C           -1.97976218576501        1.69298860365053        0.03372226446313
N           -1.43235337163268        2.88864379279596       -0.18621551659839
C           -1.09967752177241        0.54940284352326       -0.05322380703037
C            0.28502921436452        0.80021881868268       -0.09432655476990
N            0.90804764859714        2.00607859318348       -0.18808232466246
C            2.22599046204662        1.77429536318131       -0.15474130267769
N            3.13282824271545        2.77141517346708       -0.29667768467945
C            2.52362658113241        0.39242673171620       -0.03003588131803
C            3.80460992672807       -0.14153283978889        0.04387936313455
N            4.89201825436746       -0.51373666509267        0.10786509691385
C            1.27182707370173       -0.24421663495485        0.00876974476157
H           -0.81999767436661       -2.85428892613509        0.22385776129595
H           -2.20950096044271       -3.05044927624361       -1.15137918853753
H           -3.90452228363621       -2.94009427176791       -0.88012770794129
H           -4.91814631232653       -1.29039546236745        0.06804211776657
H           -5.22278805175536        0.89509622152999        0.81298474957473
H           -3.73076058108444        2.66480503130389        0.66270924540993
H           -1.97777851090809        3.71838543021733       -0.02196018006012
H           -0.39468032743645        2.91176796824549       -0.28525599003395
H            2.81705600460502        3.71680074812185       -0.17000831337369
H            4.09216080407726        2.56312257938626       -0.07916949472349
