30
 energy: -54.927640541651 gnorm: 0.000553289099 xtb: 6.6.1 (8d0f1dd)
N            4.68620053344485       -1.88236023515749       -0.45656788483645
C            3.80958419611489       -1.14654216470887       -0.33083642846549
C            2.75497130837877       -0.23241277240007       -0.16791608137302
C            3.11370585719492        1.04410558152057        0.34175337609825
N            4.30435293981243        1.19079254735323        0.95270149268091
N            2.44000724166030        2.17196953265847        0.16780297559607
C            1.19161983947640        2.32679368252076       -0.17043257291186
C            0.10620969321167        1.43331308145726       -0.16345659913637
C           -1.16776334085217        2.03222920132504       -0.19842944303587
C           -2.34355561445385        1.30999332465022       -0.10053071754356
C           -3.58967074922559        1.97049357209810       -0.12392972560674
N           -4.58628758635064        2.53768721652956       -0.14920649696438
C           -2.26532246222263       -0.08179829103554        0.05099882103397
N           -3.25327231216185       -0.94555777765785        0.22012448934387
C           -2.66149212025333       -2.16069473956930        0.34246982244369
N           -3.42842337109154       -3.26762537724490        0.50531777008057
C           -1.26911267497846       -2.10394270679250        0.20541057663298
C           -0.95688425334339       -0.74918908849736        0.01641158195364
C            0.22249050916565       -0.00966308452477       -0.14972831077310
C            1.44990052631783       -0.68869352676587       -0.45482161425703
N            1.34794716090725       -1.90941431675776       -1.00732065051195
H            4.59634963426159        2.12002719898660        1.20168773022164
H            4.95445325151568        0.42617292566607        1.01447695934893
H            0.95042450785653        3.36519250664544       -0.38373784149762
H           -1.22458753567325        3.10895283414584       -0.26968304887530
H           -2.99991109207132       -4.10098924544963        0.86944124784736
H           -4.38985499237557       -3.09793050700381        0.74852786528600
H           -0.61230801580756       -2.94230112487376        0.34174324156948
H            0.44099836939562       -2.25637860293016       -1.27247212487810
H            2.17433706034883       -2.43514106608787       -1.23832737257202
