30
 energy: -54.129048585942 gnorm: 0.000793138346 xtb: 6.6.1 (8d0f1dd)
N           -2.65897709372805        3.60066659508914       -0.41911676094673
C           -2.40445060547069        2.48592956512597       -0.30635038661251
C           -2.15155104646555        1.10322276975925       -0.17388025552732
C           -3.26694561591275        0.27659729637357       -0.32160237979697
N           -3.44006836421647       -1.00115244200896       -0.11710746963655
C           -2.48334364814235       -1.88434033961108        0.21149296765656
N           -3.00463264141353       -3.10987522495731        0.50048857833592
C           -1.09775194129784       -1.75807495247355        0.18553336809578
C           -0.29481152604015       -0.61815977143812        0.02048547936994
C           -0.78522073890272        0.75478417165183        0.03834846012222
N            0.01284751733535        1.79501955381614        0.21215570242060
C            1.34264596769728        1.67372779908042        0.27796021564062
N            2.02493817163282        2.82409341963917        0.51709029975643
C            1.94329971897641        0.44439860495449        0.03433673596067
C            3.26497453061003       -0.03994902738954       -0.10844753365372
N            4.42187811423371        0.67898664944510       -0.04770334857086
N            3.28421781188786       -1.36766951842598       -0.30181394000528
C            2.00984966315975       -1.79104608414795       -0.29109325066552
N            1.73297675213966       -3.11231267130427       -0.47443416913516
C            1.09673966104348       -0.71948664324290       -0.08032500451910
H           -4.18768750566732        0.78329272623120       -0.60402472071474
H           -2.43851629355106       -3.81511038945053        0.93661910477765
H           -4.00329795894441       -3.15878226663675        0.60433885175414
H           -0.55721562880450       -2.67426902388078        0.38673436691318
H            1.44944015816953        3.60815408210353        0.78191335852276
H            2.94456953666841        2.76574690933298        0.91925361549654
H            4.38147623565055        1.62962736073977       -0.37999419430114
H            5.23872865655794        0.15968216332711       -0.33223556819178
H            0.86826433662655       -3.33609242256143       -0.94213378461598
H            2.53434987046836       -3.65229351754108       -0.76606949722977
