31
 energy: -54.636177636174 gnorm: 0.000778543527 xtb: 6.6.1 (8d0f1dd)
N            5.12036035628218       -1.06354158852477        0.29235468811200
C            4.10242292806888       -0.53165799525082        0.25646357667079
C            2.84656747629794        0.10322721234453        0.19682176252669
C            2.74988855092611        1.39634300322056        0.72163964615721
N            1.86624702087929        2.28402106577005        0.37410490275431
C            0.71337760905067        2.12719051377334       -0.24538481437781
N            0.30484507766637        3.17419403728668       -0.98126731795043
C           -0.15833935299893        0.98755034668445       -0.08242135242427
C           -1.54991705421796        1.20073779036288        0.03802610023623
N           -2.06780177757116        2.50977921068728        0.07834774353174
C           -2.43328386466750        0.11837924513103        0.08048430091975
C           -3.81552792005216        0.35345734772044        0.20406486609589
N           -4.93665019333900        0.58003713525538        0.31636711887753
C           -1.94783154153197       -1.19248533155439        0.03766889433589
C           -2.58663753511063       -2.42225823855837        0.12766571876832
C           -1.59727734012735       -3.40706441277118        0.12996582061472
C           -0.34234033987905       -2.82378419134555        0.00083479571073
C           -0.50865133637717       -1.42690713097047       -0.06974308432501
C            0.37632369171553       -0.34249043845481       -0.14881973575475
C            1.77643793586842       -0.61329106738597       -0.38850377156163
N            2.07816034259553       -1.70306460934196       -1.10852281335252
H            3.54791882852560        1.76441124911675        1.35570302975143
H            0.88158207952563        3.99836313501333       -1.00275121813825
H           -0.64939220772278        3.21130894961062       -1.30493628440921
H           -1.59183779218607        3.11862566374605        0.73171679535286
H           -3.06612927734836        2.50952257165563        0.25322473279102
H           -3.64512767279816       -2.57781025981483        0.21761364742511
H           -1.77609588660684       -4.46430613967362        0.21668909002967
H            0.58134267426904       -3.37271814202681        0.04568774399878
H            1.33525113157300       -2.26652067091090       -1.48918995310772
H            3.03518979769105       -2.00277445249423       -1.20179687385881
