28
 energy: -47.476879611156 gnorm: 0.000667866456 xtb: 6.6.1 (8d0f1dd)
N           -5.37338596849827        1.65329199959482        0.02573683405444
C           -4.28455986590779        1.28809417455334        0.01758333149161
C           -2.94278843316393        0.85195879942081        0.00573437532902
C           -1.95588161966355        1.86259762050666       -0.00549619140459
C           -0.60061661434185        1.73392612948198       -0.01273624591094
C            0.25800070834296        0.59503211592001       -0.00989214804249
C           -0.17024732312860       -0.79195525270662       -0.00971303681726
C            0.80063086667670       -1.80240059223402       -0.01439138085870
C            2.16072810018153       -1.55246735867417       -0.01337990058793
C            2.59717487240622       -0.24527091270942       -0.00811081143438
C            3.89219505827241        0.33394718302032        0.00017053097554
N            5.06892515420135       -0.33230009321722       -0.03473797227926
C            3.72941439681616        1.73666587893784        0.00034248362171
C            2.38715467192787        2.04009311751001       -0.00358979626128
C            1.63249912959524        0.83175147176493       -0.00808136981079
C           -1.53250189385137       -1.22766706639097       -0.00260119747222
C           -1.76030873698378       -2.62625902590005        0.00131250458678
N           -2.02205618854842       -3.74488789743311        0.00287097075159
C           -2.73012472078347       -0.51987980987506        0.00636731041409
H           -2.34560022627761        2.87424287712324       -0.00800217299261
H           -0.06222905797870        2.67151897010029       -0.02094159250215
H            0.46836466373521       -2.82951518564866       -0.01779261120846
H            2.85407690253376       -2.38189481259600       -0.01817958556899
H            5.07689645398499       -1.32515642551149        0.11906514897240
H            5.92284786156098        0.17367026393986        0.12251683078615
H            4.53667539689749        2.44611996320943        0.00482163032532
H            1.99545472779719        3.04019287812711       -0.00122549806817
H           -3.62651458040279       -1.13257757231382        0.01442798861165
