31
 energy: -59.465754613870 gnorm: 0.000849493683 xtb: 6.6.1 (8d0f1dd)
N            5.76832076022639        0.79884808189390       -1.08589417358547
C            4.69105121963941        0.48627905220286       -0.83887116190341
C            3.38359343009640        0.08516683386876       -0.53679913637322
C            3.01028662975559       -1.21165662783863       -0.13547688580562
C            1.62498045762964       -1.22287561964370        0.02931451917063
C            0.74801521783630       -2.25333477315871        0.41379471062551
N            1.19027533068293       -3.47307589892733        0.75606190005768
C           -0.63871002270810       -1.98273988845037        0.36953950496412
C           -1.53945737397609       -3.03651147541242        0.60435268864816
N           -2.22470853857862       -3.93350951491583        0.82121409694576
C           -1.15344556948256       -0.72579932719684       -0.00149798482760
N           -2.42358203958255       -0.69135211209999       -0.34390110101553
C           -3.20201898653266        0.34486182210607       -0.58299946154831
N           -4.27437396158409        0.10881678017745       -1.35917868490737
N           -3.13942487660370        1.55759852871146       -0.03129841612315
C           -2.04593515376816        2.13477746460057        0.40704560176753
N           -2.23978556621020        3.27724321251650        1.08946016462324
C           -0.68033306392515        1.72215259756686        0.16072311111761
C            0.25192722817901        2.75941819377889        0.36120791624440
N            0.91266958916728        3.67821984069846        0.56663401683724
C           -0.22890800478992        0.42317196780237       -0.08631263861196
C            1.13437124476092        0.10613100429217       -0.23881395916262
C            2.24361245203483        0.89431662734919       -0.59095097726764
H            3.69257878127772       -2.03012138973540        0.00693621033556
H            0.53411343578252       -4.20725147929274        0.96565607519710
H            2.17064494502793       -3.68602391425824        0.71253590767995
H           -4.99689634504421        0.80445396142951       -1.41250341202779
H           -4.46582412531136       -0.83946207865999       -1.63163490621163
H           -1.46798175383573        3.85777086087043        1.36991670126618
H           -3.18348944750975        3.60586959468107        1.19801145554083
H            2.23462748154559        1.92141620374484       -0.89996582315645
