28
 energy: -46.685481225393 gnorm: 0.000394645387 xtb: 6.6.1 (8d0f1dd)
N            1.13946377783716       -4.36620011002388        0.19530641769961
C            1.04643483595616       -3.22117859704734        0.14287931488325
C            0.99379184384811       -1.81530107523425        0.08498526787921
C            2.22659860650688       -1.14644708428356        0.08663758812693
C            2.23270051797162        0.22272834555561        0.01700280224033
C            3.26791692163671        1.19140920214021       -0.03007481362066
C            2.70007552794880        2.44445480098996       -0.09888428988149
C            1.29114527146607        2.31663153123909       -0.08618586117898
N            0.36212010604603        3.28892925570287       -0.10412986687023
C            0.97753896904761        0.93241751691362       -0.01573780043997
C           -0.26718434176993        0.30551700250251        0.00675590654708
N           -1.32445521651256        1.13332273094597        0.05585956881747
C           -2.61730515463456        0.88274832249824        0.03123367363513
N           -3.38583489682451        2.01062655961140        0.12216957634200
C           -3.30606419112341       -0.33677437816046       -0.13795129255331
C           -2.74126915973643       -1.59500618635884       -0.18285433043139
C           -1.40996572265410       -1.95746295132892       -0.08209439372002
C           -0.25942723033198       -1.15471241581219        0.01406569270241
H            3.14042473105150       -1.72218875277914        0.12873971851727
H            4.31978386927486        0.97198258943291       -0.01686170147147
H            3.22934646312742        3.37875396851427       -0.15202970044880
H           -0.58695021415234        2.94013829302066       -0.18817503821583
H            0.60964211642211        4.23204404048262       -0.34714321489976
H           -4.36788922297202        1.92148175397565        0.31386961487214
H           -2.93228419967430        2.85686438710177        0.42110918303058
H           -4.38334991681406       -0.26782054866466       -0.20816602759856
H           -3.43844248245782       -2.41719870080800       -0.29079865378137
H           -1.21755765578303       -3.02348518792711       -0.10442487118155
