27
 energy: -46.163612370870 gnorm: 0.000584523953 xtb: 6.6.1 (8d0f1dd)
N           -3.99868139600622        0.20036754742730       -0.14386375830643
C           -2.73446940525843       -0.31412007100709       -0.12201185001870
N           -2.53532944344782       -1.64456854141877       -0.11592826776469
C           -1.20747073352243       -1.84157177372021       -0.06370126852165
N           -0.61087980415901       -3.03721321601114       -0.06109875260515
C           -0.49385073136853       -0.60673447452140       -0.04161533245900
C           -1.51749802866506        0.40786283239626       -0.05577156966910
C           -1.09714940921234        1.72519313598145        0.06105029921085
N           -1.94868452259273        2.78999534186610        0.13186287993630
N            0.20686776043586        2.02897234977362        0.06276025242463
C            1.16422086324476        1.10614697732160        0.01014034299910
C            2.47225310110449        1.64987752874681       -0.05830349551121
C            3.68230898841662        1.00108840540666       -0.09981959068253
C            3.94083210424492       -0.36608151328896       -0.03850698208371
C            2.99946409499450       -1.38950670617443        0.06703057027584
N            1.69427868201058       -1.38960997846880        0.07300592263286
C            0.85922231258971       -0.32042627247963        0.01165596323337
H           -4.71066814274475       -0.48408082317516       -0.34947071383401
H           -4.11507376380995        1.08982428904433       -0.60298269338989
H           -1.15096541229635       -3.87971180921104        0.01358468533942
H            0.39595909665125       -3.01206961379869        0.03971419579740
H           -1.50780319304884        3.66322268245992        0.37483948332099
H           -2.86716139592761        2.62904249841141        0.50964406547804
H            2.48142081999763        2.73083080080963       -0.09942381155634
H            4.55573635881353        1.63925781279453       -0.17543368534277
H            4.97747670048929       -0.67323057778261       -0.06576473218861
H            3.40748694666688       -2.39771638438167        0.14207209068499
