29
 energy: -55.995624543411 gnorm: 0.000845082641 xtb: 6.6.1 (8d0f1dd)
N            5.34279197819500       -0.93706168222098       -0.68564845367092
C            4.22643747691877       -0.71609492220159       -0.52751629418792
C            2.88499321188462       -0.36369557939820       -0.34470208405671
C            1.77950260094645       -1.20032910330706       -0.34934149611507
C            0.62068593593555       -0.40723421146221       -0.18213161820738
C            1.05210081408630        0.97106671237667       -0.05186400828685
C            2.45337800695927        0.98972729434022       -0.16338023964627
N            3.29415674228901        2.05692731777796       -0.10006593284667
C            0.12398530080828        1.97961113150245        0.23267958102740
N            0.49014724850147        3.24274572003166        0.54203282968028
C           -1.25061569346101        1.65644879906565        0.09856734884257
C           -2.19724799482005        2.68775435149061        0.24354909733856
N           -2.91705472124635        3.56853975357956        0.40331738397602
C           -1.68788223993350        0.36191264549809       -0.22053638491299
N           -2.90827610491473        0.21922093808269       -0.71605989716105
C           -3.65027858564838       -0.83634634006379       -0.83428330553573
N           -3.62224097946072       -1.94758510840183       -0.11597784923082
C           -2.53697220027204       -2.43025235644417        0.43261695025655
C           -1.19783833440349       -2.03207413673169        0.26248734894629
C           -0.26668106976113       -2.97250537988793        0.75908531932429
N            0.42457119865346       -3.78402806061189        1.18523974086431
C           -0.72772360876058       -0.74784002690640       -0.12427949084128
H            1.80964770558637       -2.26155178284728       -0.50248358622508
H            2.95634983588840        2.95220030251689       -0.41618223264309
H            4.26139598809010        1.86305334446634       -0.31647127471351
H            1.41872618761578        3.41455222927749        0.88697951687000
H           -0.23374111934227        3.89236943518831        0.80924812063391
H           -4.48908797364138       -0.74487978715099       -1.51787954377693
H           -2.70234964229356       -3.32264780795936        1.03011478259814
