25
 energy: -42.710223407085 gnorm: 0.000561151983 xtb: 6.6.1 (8d0f1dd)
N           -4.39398581547375       -0.42110918527616       -0.36610143844636
C           -3.12908033855692       -0.02709965098821       -0.08711991517514
C           -2.15293614236693       -1.03742114055132        0.01721143408840
C           -0.76729119652208       -0.96326327963228        0.10066219671629
N           -0.18043928406909       -2.18016888922559        0.16679320411753
C            1.12514230611181       -2.30203136112188        0.15687676174897
C            1.97079160155938       -1.20976400920089        0.03236954975633
C            3.35468429095513       -1.00800024840698       -0.04299282057526
N            3.66069053443801        0.28487649950560       -0.16755564663089
C            2.50801151216223        0.97828825462139       -0.16365880373765
N            2.54028680075568        2.33218639530355       -0.27966631542269
C            1.38159924377035        0.11297614697002       -0.02077036556146
C            0.00402880965503        0.27703045612034        0.08989094282646
C           -0.57012190941565        1.55605687186401        0.27444020273359
C           -1.89160860503411        1.93783656961131        0.31400430643919
N           -3.01898585206937        1.28407596524380        0.09363748391850
H           -5.11478301281145        0.27854556875132       -0.36993304400487
H           -4.63661901350412       -1.39199868383573       -0.43288377003686
H           -2.52477265438606       -2.05420542450147       -0.01613803220361
H            1.50600571559588       -3.31371113208882        0.23329697241484
H            4.13093109911989       -1.75065619921197       -0.02379723046261
H            3.44995820679376        2.69852905207973       -0.51635532370696
H            1.75249835701266        2.79557825062660       -0.70253411078211
H            0.14073694844447        2.35060066771756        0.45774888524353
H           -2.07622487466456        2.98893986502609        0.52558606664298
