32
 energy: -54.363470514454 gnorm: 0.000550504480 xtb: 6.6.1 (8d0f1dd)
N           -4.44045509398501        2.64113643347763        0.79953960848987
C           -3.55170961350310        1.94421034106524        0.57970410506201
C           -2.52453939598913        1.03389666983693        0.32669348016009
C           -1.15679788643082        1.28900393701820        0.28673776964743
C           -0.47978882193466        0.07149691176812        0.06130821734540
C           -1.48792735691008       -0.95969083737734       -0.03631817570084
C           -1.10113703773374       -2.28638877378162       -0.26823244502375
N           -2.02150580590783       -3.27507496207172       -0.48760464219220
C            0.25557731461985       -2.57960036744911       -0.18088640885662
C            1.25582086281037       -1.62170184709399        0.01755803590341
C            2.55401068711026       -2.11491920813773        0.25126769348234
C            3.73677663265938       -1.45704132045011        0.50632303617250
C            4.03173568040952       -0.10857296910321        0.42805220924803
C            3.20140220772115        0.93374680973701        0.00479072960622
N            3.78968979394314        2.15538587005150       -0.12698849118924
C            1.80697501589179        0.84979115548494       -0.24230356895140
C            1.28330705524396        2.01468657297728       -0.84102064395468
N            0.99634177598669        2.96589709172419       -1.42424085428094
C            0.89133908999334       -0.21398744383526       -0.02193773949033
C           -2.74416661974615       -0.36075513698652        0.12845048413392
N           -3.97867415630210       -0.96423494024285        0.10903607490851
H           -0.71809947931900        2.25171053272835        0.46381141184457
H           -2.89771963524669       -2.99429537076342       -0.89678645883624
H           -1.66106270294261       -4.15969896320804       -0.80927937800704
H            0.55583680147539       -3.61539309246694       -0.26435352990594
H            2.61145660619719       -3.19572120693568        0.30366589303196
H            4.57134759802711       -2.09291666267155        0.77696085041518
H            5.05317314574775        0.17582750953540        0.64831693881623
H            3.27689742493362        2.91783480066485       -0.53653970562443
H            4.79147738512106        2.22213582479719       -0.10072572146305
H           -4.02590331829797       -1.89549522397293        0.49471977064469
H           -4.73679581504438       -0.36390768861593        0.40314510426838
