29
 energy: -51.207876533918 gnorm: 0.000856640300 xtb: 6.6.1 (8d0f1dd)
N            4.78420187785717        2.06189623554460        0.00985591798094
C            3.76829991061527        1.52455635650791        0.00739604114084
C            2.52777687912815        0.84768782179323        0.00358906251274
C            1.40881479093036        1.69337592178424        0.00497727848649
C            0.04713975306662        1.44445723924001        0.00102352110152
C           -0.80724251770508        2.57866093939716        0.00463155726208
C           -2.17346100295467        2.50289398151478       -0.00029752126255
C           -2.79036909812184        1.24723319819307       -0.00999833714300
C           -4.09194703424280        0.78429057000470       -0.02241093121766
C           -3.98378777314260       -0.63129901740470       -0.03313874977252
N           -5.00825929887979       -1.51238510730276       -0.00025882902790
N           -2.71066029232953       -1.05937759524449       -0.02883889297120
C           -1.95282102265616        0.04980451040925       -0.01337925556485
C           -0.55639489709604        0.11674144526035       -0.00690926465134
C            0.12207114452324       -1.10646070928804       -0.00788317942993
C            1.46585337128533       -1.42728323513102       -0.00483637100456
C            1.75696198294426       -2.81115035260784       -0.00861288485082
N            2.02253641412266       -3.92885934139620       -0.01018229284403
C            2.60054105724928       -0.55929529546847       -0.00026838430765
N            3.81966705121024       -1.13498090943000        0.00021733131942
H            1.67800360690363        2.74555591814549        0.01012336260635
H           -0.33721604460435        3.55227420275346        0.01124943022797
H           -2.77267623559638        3.40230185393813        0.00251898839261
H           -5.00299461106941        1.34947832129780       -0.02357015246486
H           -4.78565116531174       -2.48059314575991       -0.15386626618093
H           -5.93565084023296       -1.19547766294974       -0.21982477506209
H           -0.55801006201561       -1.95271380363654       -0.01186482381115
H            4.64993030095523       -0.56578371205277        0.00434760419569
H            3.90823514456748       -2.13762332411165       -0.00115263785963
