29
 energy: -50.402045640985 gnorm: 0.000804917347 xtb: 6.6.1 (8d0f1dd)
N            2.19217949569480        3.43317306139879        0.33384073291554
C            2.25346368038885        2.28234745130335        0.26526327055959
C            2.32226725002631        0.90000599931050        0.17185692115033
C            3.47751603973074        0.13456798458737        0.38480933985842
N            3.26149998351821       -1.17900847384918        0.33155755250787
C            1.94528507708085       -1.33115069382772        0.12238266030322
C            1.22660228396556       -2.51621293968796        0.04690227984916
C           -0.14907099990179       -2.47965978742365       -0.06504136642999
N           -0.84368840121394       -3.68267588892007       -0.09358865043221
C           -0.84671281783530       -1.23363430574593       -0.17186579325123
C           -2.25157664718092       -1.26943387530340       -0.28143903679205
N           -3.14481229610589       -0.39294121626987        0.06418517633607
C           -2.98802245355591        0.90421394571992        0.31938562730980
N           -4.00894541063022        1.47610062002002        0.99143039412553
C           -1.97112467963533        1.70135047143459       -0.21942943514269
C           -0.71551703904809        1.25928755371576       -0.61024464351863
N            0.03039839152424        2.07952227901817       -1.36893977413640
C           -0.10387380549518       -0.00065824535172       -0.21954257774243
C            1.27000070688360       -0.05549218207732       -0.01108728034780
H            4.46347137011592        0.51963291948976        0.57841509359060
H            1.74645404747722       -3.45967344882123        0.11955722119643
H           -0.27565045510068       -4.47780717162485        0.15818222575993
H           -1.75409575906837       -3.70180330441430        0.33620254299313
H           -2.69910863752063       -2.20499910738024       -0.60388394813706
H           -4.78859993696291        0.90408285506430        1.26271405966463
H           -4.04295707582902        2.46827355459344        1.13378435519562
H           -2.18178089962880        2.75535078973233       -0.34970727131726
H           -0.23752134492598        3.04267184897713       -1.48392599366064
H            0.99370983103194        1.85159110783039       -1.55289104750677
