28
 energy: -51.478946207511 gnorm: 0.000803069547 xtb: 6.6.1 (8d0f1dd)
N            4.16031107162327        0.14841140481894        0.94778708262844
C            3.13690799244784       -0.19525109359449        0.55561083076783
C            1.89418014532459       -0.76951245730000        0.19825667706482
C            1.91396387227616       -2.17242503838780        0.32172313023903
C            0.91962029145595       -3.07951740843476        0.09167504695230
C           -0.42016947021230       -2.77341834968717       -0.27986357002476
N           -1.20172057787727       -3.81703376297735       -0.65497696257154
N           -1.04771072906176       -1.62546610584575       -0.21073655661997
C           -0.58137892184201       -0.37943641951383       -0.03999145953916
C            0.80191963401161        0.08395857580336       -0.08375029342908
C            1.03504797033388        1.47130623793753       -0.28580590123137
C            2.30769011676202        1.94671028911773       -0.67246843683549
N            3.26676406217688        2.41900868205093       -1.09150434903612
C            0.02896394778057        2.43863558159521       -0.20247485780717
C           -1.25609889884774        2.02248543947604        0.06655927310962
C           -2.51542102877791        2.65265458635431        0.21508948857514
N           -3.50543280405278        1.77833782037103        0.33974182680750
C           -2.95524484186039        0.54306422396714        0.26887028282063
N           -3.66418195837217       -0.58389387332368        0.33883680219219
C           -1.54001816874718        0.61431729309951        0.11555579508411
H            2.87797641447475       -2.57896418718480        0.60615472102714
H            1.16175281244204       -4.12950316880936        0.18092328618417
H           -2.11879045590612       -3.62453954415156       -1.01823386808726
H           -0.79722876836262       -4.71946674478723       -0.82451015635245
H            0.27792848249224        3.47943465945280       -0.34824129109969
H           -2.71747644771105        3.70794783395034        0.22942620400250
H           -3.15015633726563       -1.44549106303866        0.23117110220278
H           -4.66502549047325       -0.54797560661835        0.41592283678814
