29
 energy: -52.004237023243 gnorm: 0.000821721062 xtb: 6.6.1 (8d0f1dd)
N           -5.35620316324933        2.58232991497333       -0.00093680225566
C           -4.35562877782163        2.02189335489379       -0.00041127035204
C           -3.11752218027770        1.33611905530445       -0.00023186381927
C           -1.96533152945780        2.12586900817195        0.00003315822198
C           -0.64778143072484        1.72684335633369        0.00018697770986
C           -0.03939480983290        0.46071763414232        0.00035356786709
C           -0.72954493697454       -0.82976444008928        0.00062603021937
C            0.01614856681694       -1.99885334111612        0.00130761900535
C            1.41767912757223       -2.04520027500291        0.00165115826699
N            2.05686276261817       -3.22664963573646        0.00248086597259
C            2.10886986881512       -0.82282314010742        0.00107857828162
C            3.46729554979538       -0.52463844761043        0.00110871632689
C            3.59229927106919        0.88171045782990        0.00060866689613
C            4.80618595388551        1.58184507826529        0.00141262998819
N            5.80452167585494        2.14915805548733       -0.00138174445293
C            2.32192332354018        1.45645030359780        0.00001758822966
C            1.36643074663845        0.41733740370719        0.00041373154835
C           -2.15417774603803       -0.98365058449675        0.00011594204912
C           -2.64840991826980       -2.31555880303662       -0.00051784091198
N           -3.09855649544194       -3.37117439504670        0.00034667134126
C           -3.18379557727552       -0.05948100500127       -0.00029876008476
H           -2.13979309422161        3.19538235215980        0.00007462898874
H            0.05804631017389        2.54588939997575        0.00027090211642
H           -0.50493151922270       -2.94561711773487        0.00162761910764
H            1.53791178415312       -4.08725477809233        0.00276291605576
H            3.06009761593823       -3.26119621235782        0.00266789155909
H            4.29173548766348       -1.21397501538974        0.00167346384763
H            2.14365487472431        2.51529434978975       -0.00043020819179
H           -4.18528853015127       -0.47764837911317       -0.00069563393116
