27
 energy: -46.979485065639 gnorm: 0.000649637679 xtb: 6.6.1 (8d0f1dd)
N           -1.78559653768391       -3.37386520105259       -0.22159242221567
C           -1.97093442637992       -2.23473877129390       -0.22144198479944
C           -2.18603565703813       -0.86468889477040       -0.19548893096996
C           -3.41666479981403       -0.22268876002507       -0.42262926692972
N           -3.33401607681523        1.10283414058582       -0.38612546427443
C           -2.04111032511515        1.39281669530498       -0.16513202653259
C           -1.44016171460670        2.64259140481654       -0.04557087565628
C           -0.08281436809264        2.70866103461555        0.14161137451118
C            0.74112045555101        1.56166604563840        0.21290403687585
C            2.14091091528807        1.80134742143903        0.29075038097253
C            3.18596146285213        0.97039306823969        0.02697487596928
C            3.06799717262849       -0.41598785059644       -0.28324385652957
N            4.07623464539976       -1.02486189831630       -0.93569761135807
N            2.10191839696178       -1.19457332369583        0.13886410010379
C            0.89819266956632       -0.90433736509724        0.57265815484949
N            0.33636866646547       -1.80357356378639        1.38610035991978
C            0.12903447733315        0.27138469132067        0.20929115668772
C           -1.24477907559346        0.19055705329328       -0.01951945023721
H           -4.35761167158322       -0.70952869117393       -0.61024064062651
H           -2.04070238819628        3.53577642444103       -0.11761239575135
H            0.39620476285686        3.67550086858096        0.20123315877106
H            2.40169860575538        2.83856735568948        0.46810438381412
H            4.18299076430750        1.38854283722461       -0.00617136909136
H            4.86081627885278       -0.50241234578134       -1.28037104859185
H            3.98819081700184       -1.99989884669464       -1.16244365626909
H           -0.64616193913034       -1.75041709161138        1.59872617493851
H            0.79941017022831       -2.68762161029452        1.52110015101962
