26
 energy: -42.434105433501 gnorm: 0.000813450500 xtb: 6.6.1 (8d0f1dd)
N            4.37389409994641        1.09336624804189        0.12334644908105
C            3.22710866271826        0.36500146676602        0.02509554469668
C            3.37486899289100       -1.03825146424999       -0.10797151000639
C            2.35469698966525       -1.96171135167388       -0.13581943205197
C            0.98650766859656       -1.75077665937237       -0.05955154860535
C            0.26162668679130       -0.55100858255816       -0.01030132745922
C            0.84977836084559        0.78542106385181       -0.05253177706742
C            0.00681585493037        1.90681319731653       -0.12969611912443
C           -1.37194854722559        1.82845043634625       -0.11807713974878
C           -1.95984680529931        0.58431742048701       -0.01772431300243
C           -3.29705903496125        0.10766583642807        0.04030502835752
N           -4.43543837267820        0.84350149498009        0.06905074281601
N           -3.33240496144832       -1.23496257856952        0.12843896921456
C           -2.06720235047487       -1.66087931044632        0.12607227354607
C           -1.14245208705603       -0.60305083508740        0.03741009810688
N            2.14623564130173        1.11005572828975        0.01147038642921
H            4.27607706798633        2.07598811177656        0.31007845732214
H            5.25262807553018        0.64699334712010        0.31211559378348
H            4.39067563962309       -1.40614403481645       -0.16704684900678
H            2.66116569363045       -2.99876037108282       -0.21259946245931
H            0.37817569403953       -2.64549883880897       -0.06821754580649
H            0.49490263384910        2.86751599723442       -0.18363690513613
H           -1.96595557925010        2.73126873446694       -0.17180731494881
H           -5.29694749250384        0.33877300574739       -0.05252849485722
H           -4.40087910984196        1.79519210338412       -0.25167689236675
H           -1.87349189990563       -2.71631536387109        0.19194397789388
