26
 energy: -47.242866117303 gnorm: 0.000637966644 xtb: 6.6.1 (8d0f1dd)
N           -4.56407461908937       -1.42583984045623       -0.35335030501990
C           -3.62445207640364       -0.77911752354359       -0.21864415345097
C           -2.46629901915353        0.01211426208177       -0.05856090499604
C           -2.64415247168253        1.38503904041126       -0.14545691711837
N           -1.82221417483729        2.33632410385341        0.23174089532860
C           -0.53367579353455        2.29178500395676        0.40355259702149
C            0.40791022438904        1.30519395908465        0.04567048967374
C            1.76412019557655        1.73097295264472       -0.11700440275234
N            2.04527165179385        3.08102322586120       -0.16841816786462
C            2.81637319326824        0.82949296798007       -0.18031675634592
C            2.54078531404955       -0.52368116136045       -0.09297535704717
N            3.34550469569905       -1.60013862577130       -0.10397374818953
C            2.50676623572883       -2.62774089033416       -0.00280317383748
N            1.20677499577397       -2.33582489164547        0.08067454613839
C            1.17087784451789       -0.97819294252100        0.02189771781263
C            0.08498160116892       -0.10534802327002        0.04220067853457
C           -1.22982149572456       -0.68828409752552        0.12976437863812
N           -1.28368344223153       -2.00183622371817        0.28301358534202
H           -3.61996154642050        1.74594660503342       -0.45660259103649
H           -0.13741944362725        3.20046770189231        0.84915692234650
H            2.99680961502047        3.30892994694249       -0.40797103511196
H            1.35724721657174        3.69825011862966       -0.56456723541787
H            3.83270974943282        1.17766551509700       -0.28550764812501
H            2.85428747466522       -3.64447265204879        0.01925713249076
H           -0.36618065258814       -2.51465346189388        0.26833473988556
H           -2.17342096206449       -2.47669540918031        0.27794355340160
