28
 energy: -51.480057049232 gnorm: 0.000796796901 xtb: 6.6.1 (8d0f1dd)
N            5.06575917404215       -0.60288004770985        0.33734122228050
C            3.95393826912772       -0.87998099155993        0.23881121305711
C            2.61599082124835       -1.25650946046591        0.11763355115458
C            2.14134109719739       -2.58807141788599        0.04330482471628
C            0.76481186982796       -2.58960195217102       -0.07699810287019
C            0.31571323393182       -1.25516845874128       -0.08401435455646
C            1.49807346935395       -0.41186538202309        0.04644051085701
C            1.36053811260162        0.97518909717086        0.08484814453264
C            2.47971483752128        1.81753110331723        0.25253040536650
N            3.33685546592362        2.56572736721917        0.40692136645810
C            0.08758329210254        1.56623156257113       -0.03456380913843
N           -0.00217104452088        2.93536374119208       -0.04717904493416
C           -1.07461186399064        0.76109905235104       -0.16975089333391
C           -2.29015257356940        1.39500392876229       -0.51038001039098
N           -3.52500838235626        1.01396432331551       -0.34658365758957
C           -3.92582709282399       -0.18878911864570        0.06567845383182
N           -5.13049857697934       -0.24691203405439        0.65194253118429
N           -3.34055537380176       -1.36066048368754       -0.19156368468694
C           -2.06626837534587       -1.54946215935707       -0.36760355692613
C           -0.95800038416627       -0.68874476391197       -0.15633868089752
H            2.77357813213722       -3.45712202738609        0.07531156207186
H            0.15308218090895       -3.47013190403843       -0.13694277536608
H            0.84634813137386        3.43895212415563        0.15994202161920
H           -0.85338067093386        3.37651215825032        0.25136375713472
H           -2.21887218467798        2.39282804818484       -0.93523612757061
H           -5.53463326182969       -1.14539639552703        0.84940473396867
H           -5.67863642863046        0.59067587131542        0.73776190519447
H           -1.82492916357032       -2.56825156053936       -0.65184952846716
