26
 energy: -47.225246296898 gnorm: 0.000769088789 xtb: 6.6.1 (8d0f1dd)
N            5.12386069711602        0.87705821077395       -0.02589348984598
C            4.11786631254641        0.31967450242890       -0.02685184501049
C            2.90671091041516       -0.36742534149084       -0.02464163656852
C            2.72142200338934       -1.76959366513885        0.04456859143728
N            1.44966004153020       -2.14383728073692        0.03354727507249
C            0.72966146031756       -1.00028981442471       -0.02932950956037
C            1.60520836480556        0.15540070462257       -0.09279718424478
N            1.13215636032643        1.38883239248272       -0.21643597120590
C           -0.16644729917314        1.57205951516114       -0.18270483680322
N           -0.55145841638236        2.91304234827973       -0.33440623118244
C           -1.14311673366592        0.53504082596950       -0.00487167925997
C           -2.50597808699048        0.85682359264459        0.26712067558002
N           -2.80259585316349        2.07385481429546        0.74955792755276
C           -3.61880764252198        0.03345175412098       -0.05629963876920
C           -3.61277016198735       -1.29633108427788       -0.37913975462993
N           -2.68090069770126       -2.19410934212864       -0.07252216666455
C           -1.44509571602527       -1.98937935641524        0.21221019999600
C           -0.64646045256841       -0.82128085605924        0.00974413972536
H            3.50370791425402       -2.50558410118616        0.10296820443368
H           -1.25189471459241        3.06668989549413       -1.04910306179892
H            0.27752138877715        3.46925645795005       -0.51246531390215
H           -3.75712428093089        2.32596650322289        0.93790347270916
H           -2.05757368569378        2.73392332443642        0.92791550564042
H           -4.57338189619708        0.54630452867869       -0.08519440233846
H           -4.51273479989804       -1.73426111349286       -0.79593597264467
H           -0.89281945598575       -2.85612307691039        0.56343964738269
