31
 energy: -55.446227208833 gnorm: 0.000913589121 xtb: 6.6.1 (8d0f1dd)
N            5.39606913975792        0.44680577246564       -0.77817237410506
C            4.31943840119454        0.12474104143673       -0.54151927450387
C            2.99264986819279       -0.26181833283458       -0.24670326873361
C            2.69457258298347       -1.60304435835655       -0.48840570197475
C            1.60767245223624       -2.30358698548822       -0.02181140691468
C            0.43524528896040       -1.78279105404695        0.53105039922006
N           -0.30362953459713       -2.58075070998528        1.31261953087741
C           -0.08162275377969       -0.45703065330390        0.25247756895039
C            0.72713197154756        0.72204793400385        0.26431300934124
C            0.09116803756008        1.98102205154818        0.20214403307186
C           -1.27769916184025        2.12451930583847        0.07224294156079
C           -1.84103137240142        3.41732703487461        0.00816724011845
N           -2.28629582730120        4.47369319058157       -0.02856607745474
C           -2.08519005033594        0.98673346430476       -0.03937892940648
C           -3.45135408638976        0.82265548606570       -0.27636500135916
C           -3.69909433335058       -0.53395177891282       -0.40422007234655
C           -2.50547065802418       -1.25610042866870       -0.21309089274305
C           -2.40254783479365       -2.63238878478675       -0.37928325905845
N           -2.31492628234136       -3.77511150311862       -0.51021269979180
C           -1.46076341450332       -0.31926567643419        0.03806645386769
C            2.16190039666983        0.73508768157009        0.31966326387942
N            2.78353496102599        1.82489304211713        0.81004212399565
H            3.48254944675922       -2.17633294901152       -0.96037215016457
H            1.67005911912377       -3.38329214010400       -0.05643800782384
H           -1.21197448394314       -2.27862126194025        1.62644627356641
H           -0.11241102367725       -3.56894219790877        1.35229773130650
H            0.68269007540093        2.88408085480137        0.17386001509964
H           -4.16860918992157        1.61515367366674       -0.37624273675640
H           -4.64858802596785       -0.98734127909999       -0.62515961340591
H            3.78317687000058        1.91212858196888        0.72332461432820
H            2.26762744775507        2.59042574595743        1.20466494705900
