30
 energy: -50.111499523369 gnorm: 0.000389818799 xtb: 6.6.1 (8d0f1dd)
N            0.74284855214692       -3.00060929998461       -1.16394005557493
C            0.15579667199417       -2.11012174110367       -0.71947989393384
C           -0.60817034901324       -1.04747843800472       -0.22633243562677
C           -1.97405096515861       -1.36115452232524       -0.00947720406121
N           -2.31249504442467       -2.68901712089533       -0.05946838845757
C           -2.99338746594662       -0.48355198493932        0.33471660991704
C           -2.98402171024975        0.91273859858968        0.32428756071346
N           -4.14979433616480        1.53787260420753        0.67083812587673
C           -1.91701538108853        1.73860835011881       -0.02621312232466
C           -0.55753223513174        1.48251021956602       -0.20851032966697
N            0.13418857872444        2.59129609685357       -0.52045470168822
C            1.45138838796478        2.57388197508840       -0.55662326229934
C            2.18243312276821        1.46522310585597       -0.18668574224448
C            3.56323548750507        1.24909846598939        0.00043312541822
C            3.73828317251594       -0.04147271697342        0.44705326753041
C            2.49003475588481       -0.69742750739712        0.52251464744913
N            2.35289044303526       -1.91624049810611        1.10776038236242
C            1.48212184961756        0.22915647921694        0.10288758551746
C            0.09351310648245        0.18333240197774       -0.05972988124702
H           -3.28680152794223       -2.92972977685028       -0.11524982788209
H           -1.66393296094607       -3.33745371383589       -0.47435822839819
H           -3.94623523264872       -0.94688554675558        0.56462023906388
H           -4.23643508980722        2.52419435849126        0.50260427185425
H           -4.99788658750626        1.00396012658446        0.73666114633253
H           -2.14833201358276        2.79352779049372       -0.11132404251357
H            1.92672691000393        3.50515825516526       -0.84079448083737
H            4.33364537896248        1.98002016585855       -0.16310820319649
H            4.67383749661965       -0.50164447909511        0.71124867427145
H            1.54740164049369       -2.48376460303554        0.90567594636574
H            3.20990170539192       -2.42717835895530        1.24892283747977
