33
 energy: -57.302042631262 gnorm: 0.000628754693 xtb: 6.6.1 (8d0f1dd)
N            5.12832598095859        0.16433855162318       -0.60152338386492
C            4.00415836576439       -0.01457536355971       -0.41666666817199
C            2.64476964073544       -0.25000576372700       -0.17170695628925
C            2.32131982470875       -1.52867211395695        0.36785920155994
N            3.30719815847273       -2.23176255769306        0.97198524466280
N            1.17447619709456       -2.15285200534211        0.26417113386602
C           -0.00084465135860       -1.68124169522238       -0.13583503366741
N           -0.88173607873941       -2.60383503139664       -0.50846630886934
C           -0.47633942622365       -0.31706810949186       -0.06139384321406
C            0.36363200633123        0.84726222577383       -0.01508618509423
C           -0.23758291574873        2.10696031709907        0.27508525274886
N            0.57069884055182        3.25805377621156        0.45139583192270
C           -1.60321975652239        2.25906858939934        0.39992051289487
C           -2.44768274999323        1.17398391949523        0.19754702887945
C           -3.82573372735710        0.97357194887437        0.18928191245909
C           -4.00264248571830       -0.39595625321140       -0.04273424815788
N           -5.19417940246612       -1.05271481552232       -0.21440401273088
N           -2.83535843215691       -1.05678378957478       -0.17431525951065
C           -1.85949446060893       -0.12703777483287       -0.03378977079499
C            1.74387952678047        0.80571713946734       -0.41000017285384
N            2.24484613741261        1.88425107029843       -1.04900602398370
H            4.25952390289699       -1.91338724481153        0.92047824824063
H            3.12014885636587       -3.19097983723262        1.20595901443339
H           -1.88097727680350       -2.28306938051214       -0.51889638883574
H           -0.60626407056720       -3.56886970866902       -0.42597855436564
H            1.37991688485306        3.09409500249184        1.03765808236079
H            0.02593363203404        4.02903575569762        0.81635695248026
H           -2.01177844034442        3.23167551268338        0.64213043740059
H           -4.60116632616665        1.70214837275845        0.32379098187519
H           -5.15214121206685       -2.05368447867589       -0.11011608308669
H           -6.00391928399174       -0.61214141276094        0.18980488380040
H            1.68005280216549        2.71586317264865       -1.12216718880753
H            3.22623746790573        1.92270048157003       -1.26815574678726
