28
 energy: -46.671952883099 gnorm: 0.000697143411 xtb: 6.6.1 (8d0f1dd)
N            0.01612563418726       -3.73020279739858        0.76164664114184
C           -0.32735327144958       -2.67417216021046        0.46746328285661
C           -0.92526330692782       -1.42186537487699        0.18608377134739
C           -2.32369228470337       -1.55233428580867        0.15481741660476
C           -3.30099056372601       -0.61272467423567       -0.02200051353550
C           -3.13994234078673        0.78520071298207       -0.09996667878497
N           -4.28748855217722        1.52147744902201       -0.20113800043741
C           -1.94564616934555        1.48324795787786        0.00291183507118
C           -0.59779276886635        1.08943844300394        0.07211815555772
C            0.32347225981507        2.13794599959808        0.17601013338747
C            1.70588583416629        1.97966597731329        0.13761443983501
N            2.53703122885332        3.03964014897747        0.24167781934884
C            2.19584411802697        0.68133422488914       -0.07424967595381
C            3.46446961077852        0.14562745770417       -0.27950221275613
N            3.40544744900404       -1.18105117253132       -0.49168181641984
C            2.13334091992157       -1.54215567003134       -0.40220684283188
C            1.28564240991276       -0.43558721097348       -0.13498889267933
C           -0.10029252649540       -0.28689074302623        0.02262514367758
H           -2.67218214221879       -2.57313829909572        0.26848611606391
H           -4.32123823410602       -0.97212121184044       -0.06744505578710
H           -5.14982858458244        1.05824373018241       -0.42436157514794
H           -4.22754724700841        2.50485740896100       -0.39483537152700
H           -2.07750624039578        2.56106147231675       -0.00641253536810
H           -0.06146152026644        3.14430736215358        0.27531377330606
H            3.52914853008916        2.89244946563575        0.26356893767018
H            2.17498963588089        3.95336437337609        0.44584599853397
H            4.41319825227299        0.65243438148911       -0.30374940196917
H            1.86095134794699       -2.56546668745396       -0.57112012920443
