29
 energy: -49.614142602809 gnorm: 0.000583748703 xtb: 6.6.1 (8d0f1dd)
N            3.72864676988584       -1.24157276056304       -1.18786139659632
C            2.72075245084072       -0.82838046900827       -0.38995384811872
N            2.72722611283497        0.44064225710727       -0.03359524701756
C            1.68271599243066        1.13934187746855        0.38745160365244
N            1.98365022330032        2.26791955250356        1.05322211208989
C            0.30626987396333        0.84310423728289        0.10834710742770
C           -0.64734163987473        1.89108934857691       -0.07527963946282
N           -0.22515829500987        3.24496706062768       -0.09677021580156
N           -1.93400480626918        1.71343246140299       -0.21747349140971
C           -2.41400064612636        0.46853889335741       -0.22423054256455
C           -3.71854330800559        0.02261803813051       -0.34809572397328
C           -3.68392816502013       -1.37832436138545       -0.35238933599910
C           -2.38350399740855       -1.83368308915508       -0.19265036833287
C           -1.54303260510342       -0.70922549341281       -0.09670830557187
C           -0.18410499784996       -0.49970309451422        0.10533625637374
C            0.68723248281982       -1.60965725114651        0.47230436640995
N            0.14547121335228       -2.58481027128717        1.21184407349342
N            1.92847195070021       -1.78349516487586        0.09341942830450
H            3.88107646750173       -2.22865575468127       -1.29047268756501
H            4.47480592682216       -0.59978419051126       -1.38654222278734
H            1.24943028437528        2.94902876434256        1.19268231852488
H            2.95166703459359        2.52564752296051        1.13568174435764
H           -1.04689887862486        3.82104820903801       -0.24796004318411
H            0.45632155133251        3.42578039901310       -0.82648733155645
H           -4.59207989654652        0.63756140125502       -0.44884531526338
H           -4.54741607220840       -2.01357495885611       -0.45931307976742
H           -2.08365038059761       -2.86765340071438       -0.22775439525616
H            0.69611142422642       -3.39550463905112        1.43485389726823
H           -0.83485951433437       -2.54471788680442        1.43698298452600
