28
 energy: -51.471009855316 gnorm: 0.000651118208 xtb: 6.6.1 (8d0f1dd)
N           -3.90512381392856       -0.54246621811712        1.23176638704989
C           -3.03963052332530        0.00287589333983        0.70950888196011
C           -1.99715446540433        0.80408240340817        0.18881394311566
C           -2.32178673009799        2.16564270778977        0.16293194539922
N           -1.68142866732638        3.18588917451192       -0.34714928938308
C           -0.41406123496936        3.19563212748329       -0.72586859958430
C            0.59123128795573        2.28393956427008       -0.48608614775338
C            0.50024824839319        0.92599877099136       -0.10373268804684
C           -0.74743923677046        0.17463305218029       -0.08986338481553
C           -0.70568908460450       -1.22008752531386       -0.22661219470945
C           -1.86612699804014       -1.96829808794550       -0.50812689297943
N           -2.70357985940622       -2.68508151163103       -0.83510303426802
C            0.50534528795846       -1.97344449494651       -0.17170376496136
N            0.48615540657986       -3.30619763332433       -0.32183882545488
C            1.67833635164474       -1.25967116924249        0.07360048049798
C            3.02158794225932       -1.61973443221388        0.24989756792996
N            3.80420795848086       -0.55529170706971        0.42468015037899
C            3.02332490187993        0.53577004573931        0.34722619467424
N            3.56516706412827        1.76759908598259        0.49268413878334
C            1.65875452191616        0.18285531955267        0.10852180203782
H           -3.30316360969171        2.42322916907738        0.55306612567612
H           -0.13140218976069        4.12196601867981       -1.21731995742328
H            1.58982272263532        2.61010941158124       -0.74649906964906
H           -0.38439442365632       -3.78603969868848       -0.48245369143481
H            1.33787011636103       -3.83318763522352       -0.25410074858786
H            3.44991392945103       -2.60539287430537        0.27093790140072
H            2.98344946656420        2.52047096643305        0.82201466524621
H            4.52642726867363        1.76844182960112        0.79680348700123
