29
 energy: -51.187775053449 gnorm: 0.000689559749 xtb: 6.6.1 (8d0f1dd)
N           -4.96489312060480        0.13439557300283       -0.02052963981649
C           -3.89620585642527        0.55956425887945       -0.02931097524668
C           -2.61242813909232        1.10395810194864       -0.05192308495364
C           -2.29797328779535        2.47619389457232       -0.11915597503627
C           -0.92246048949369        2.64194140233904       -0.12683965271079
C           -0.31848334847975        1.37272219870282       -0.08352017780974
C           -1.39196536224184        0.40108745376198       -0.01496832253323
C           -1.07968141164460       -0.94789570888534        0.12133617919727
C           -2.09203154808118       -1.91416291287964        0.30561615769684
N           -2.85609421665960       -2.75372234968613        0.47692270880090
C            0.26079239669429       -1.37412777946379        0.09336206127006
N            0.51691239313363       -2.75429820392489        0.19478380581942
C            1.32035013322548       -0.45061112100365       -0.05086203736698
C            2.65218187174413       -0.94029712543283       -0.33144531815538
N            2.76958660064314       -2.10543364777814       -0.99380274816788
C            3.84601061517958       -0.34980693927418        0.11467063281710
C            4.00857678212659        0.93664534005602        0.58677271535790
N            3.23740680980068        1.96788195476144        0.31057037533378
C            2.01623121639960        1.97488841458880       -0.12163899057243
C            1.02161339966980        0.96268878216577       -0.06098236702071
H           -3.02779902091215        3.26465883512745       -0.15775759216041
H           -0.41938267426099        3.59017892251240       -0.15321875864597
H            1.24663000741120       -2.99047041170242        0.85488490600077
H           -0.32659218420456       -3.28238600471354        0.38566866261431
H            3.67981276368909       -2.50042308518029       -1.15570416782432
H            1.94531531928126       -2.64702134063347       -1.20879738156444
H            4.72404673427282       -0.98411466769503        0.08535906389566
H            4.92765141927969        1.19559548377704        1.10001398340513
H            1.68228835794151        2.94986084145641       -0.45939957082321
