30
 energy: -54.918620158104 gnorm: 0.000762439682 xtb: 6.6.1 (8d0f1dd)
N           -5.00670246695443       -0.78040755478423       -0.69117870488686
C           -3.93394685642216       -0.44182474375466       -0.44209862977167
C           -2.62660455556598       -0.01759429233812       -0.14840067221884
C           -2.41711637743668        1.38230324924749       -0.12674661413576
N           -3.48989673439133        2.16927478252186       -0.38464101360154
C           -1.22731861589430        2.03776857109618        0.18567731841486
C            0.08924973433409        1.59907621346777        0.30084158872086
N            0.93904839919632        2.61866943442053        0.54392455090594
C            2.23549242046276        2.44580232103824        0.47952175363363
C            2.78519976686929        1.23657394802006        0.08626711999140
C            4.08192357703384        0.80198225088014       -0.23419630523330
N            4.09325060971832       -0.46778493019445       -0.61360821821464
C            2.83073246448371       -0.94236747787548       -0.52071833019900
N            2.60424393073258       -2.18085592416620       -0.99564319632839
C            1.92270521853917        0.08704715147571       -0.07367502972983
C            0.55154985449342        0.22373506666073        0.15536471378678
C           -0.30962282126647       -0.89881040349991        0.35654670577835
C            0.33200933336611       -2.06263177548005        0.78909010454240
N            0.83883410864756       -3.03363185295733        1.15561098015273
C           -1.70696381307628       -1.03422324132632        0.20109467765197
N           -2.22575033665313       -2.27647945083828        0.35950505780633
H           -4.38827912010772        1.76617145651840       -0.58805043782926
H           -3.39543837200361        3.16794602335459       -0.35767478391718
H           -1.30665820245290        3.11430716946133        0.27784341688398
H            2.84666023288202        3.31061059965688        0.70500297669185
H            4.98866019750410        1.37826304606882       -0.21471566975612
H            1.86681202201778       -2.75416130057508       -0.61231621004783
H            3.45493752245203       -2.66241140321451       -1.24985909983253
H           -1.63430415564957       -3.05196314111026        0.60227829233639
H           -3.21433647525848       -2.42730805267380        0.25728053200515
