28
 energy: -47.472037953349 gnorm: 0.000972519223 xtb: 6.6.1 (8d0f1dd)
N           -3.52110419012588       -1.58012305966645        1.09063264582911
C           -2.72855838189615       -0.88809760167878        0.63151358600355
C           -1.81752453469683        0.11738017555814        0.21564746078192
C           -2.42813265039773        1.37542069464134        0.17905171513340
C           -1.89151014117083        2.60849868874281       -0.09381638504481
C           -0.53289292565191        2.93762528918227       -0.23865763064513
N           -0.23954744294785        4.24683631044705       -0.46278088339895
C            0.54743492817395        2.06471834262455       -0.08862357857387
C            0.64298403229655        0.67918574801916        0.03186830283963
C           -0.47325622510190       -0.26090960525360       -0.02028447586174
C           -0.19270372698814       -1.62888321973751       -0.23596251356219
C           -1.20428349994110       -2.54300997040719       -0.60301946566298
N           -1.92095392853597       -3.34062588361689       -1.01462426916704
C            1.10831186455139       -2.14792775572980       -0.20922334889747
C            2.16221789117505       -1.30496552732126        0.04309297560810
C            3.55155822060238       -1.53133246792508        0.16829361245949
C            4.16236069484355       -0.30527501792319        0.35560114400553
C            3.19450591778683        0.70737836984912        0.34041608468327
C            1.93529366111605        0.12166451357661        0.15491498822829
H           -3.49638774964347        1.35626194821608        0.36235774885050
H           -2.58653370805454        3.43608125412260       -0.15906349508503
H            0.70712569412968        4.53264831725671       -0.63089117679897
H           -0.97429051054617        4.90645716373163       -0.64173113985998
H            1.50925594868921        2.56217966566681       -0.12050542441337
H            1.25563513375446       -3.20586607090935       -0.37480006149492
H            4.03312156669435       -2.49024072126416        0.12428975767139
H            5.21622369163322       -0.14407233316094        0.49523003490351
H            3.41052209345620        1.75186494916015        0.47726692676885
