33
 energy: -58.092087686335 gnorm: 0.000732812294 xtb: 6.6.1 (8d0f1dd)
N            3.44754315908009        2.94775698969589       -0.16111457914169
C            2.79585457973178        1.99715876527586       -0.12799420426910
C            2.06980196025360        0.79605432300263       -0.09206516161969
C            2.83125298794836       -0.34999656461261       -0.41888172590367
N            4.04274897538967       -0.17342016246738       -1.00466198091939
N            2.55970781304707       -1.61970338889009       -0.15739287880941
C            1.43015162059687       -2.13409457339441        0.28345805860519
N            1.55768853934008       -3.41860248154608        0.69867733995489
C            0.12398286937362       -1.56841928849603        0.26127028172166
C           -0.87887798283989       -2.44322707873166        0.69503083719921
N           -1.65232828804058       -3.20568858580492        1.08648174645082
C           -0.25962686381418       -0.22542479759658        0.00089983865404
C            0.66695866580795        0.89361058067205        0.15435027852435
C            0.15405081416869        2.14107863878609        0.47333889446713
C           -1.21681144705934        2.43149551581143        0.49609295621008
N           -1.64668543072883        3.65793855800602        0.89146454295513
C           -2.09294609719129        1.43278220736349        0.07283531258936
C           -3.48377758238348        1.43913152592774       -0.15183564465204
C           -3.85774756081505        0.20288962868472       -0.63867894114208
C           -2.72775591921186       -0.63137461661587       -0.70716913745520
N           -2.73831339227341       -1.82813350584560       -1.34184255301626
C           -1.59820447251396        0.11390034828912       -0.22255726956395
H            4.64280487547359       -0.97640695020760       -1.07319735599538
H            4.43988518554603        0.74746882850965       -1.07632962547165
H            0.78895373014769       -3.90953341039328        1.11954575455175
H            2.48457919266957       -3.80191449352220        0.74389524519593
H            0.84590769853073        2.94598529322699        0.67758611912219
H           -0.97243839973194        4.39793757196657        0.98343385197338
H           -2.60021519351922        3.91691374704447        0.71231423719493
H           -4.14809700070622        2.26763022553880        0.01882572290178
H           -4.84720257752509       -0.08840649311405       -0.93981814289715
H           -3.63947996592882       -2.24049571980469       -1.51631397523853
H           -1.97402585212201       -2.47010493115957       -1.22669267417689
