27
 energy: -46.947425053849 gnorm: 0.000693257116 xtb: 6.6.1 (8d0f1dd)
N           -4.64929943220820        1.46841849680144       -0.11816426623933
C           -3.69521202681903        0.82300023223558       -0.09076267146018
C           -2.56059821688922        0.02278751594617       -0.04785923468787
C           -2.55235947416644       -1.39416993614690        0.01844744195505
N           -3.65846317144900       -2.17678522955192       -0.01924664335427
C           -1.22178951559732       -1.84209242380167        0.07163986134825
C           -0.37572491097833       -0.73277608806552        0.04272420435048
C           -1.21592054607079        0.45391941819879       -0.04312739034256
C           -0.65769299342474        1.70819293964785       -0.11267195889337
C            0.73218348025229        1.86563751500025       -0.05742799047971
N            1.24554535631459        3.14629117725744       -0.04603626615426
C            1.59046971004568        0.74943633869167        0.02690810496990
C            2.94757155004833        0.95427897973607        0.36124322978558
N            3.99025258264814        0.21021499697183        0.11185635195976
C            3.96879650497889       -1.02709197358889       -0.35183612536690
N            3.07920070921410       -1.95561551179385       -0.13037961493660
C            1.81197252361907       -1.75708444561363        0.18113728150037
C            1.02360961182640       -0.60990861414068        0.03107774513268
H           -3.57720476981553       -3.15087252900398        0.21225561932486
H           -4.55774922799862       -1.74154685882667        0.09563955917399
H           -0.93476235040541       -2.87621711764020        0.10826387408662
H           -1.28944540067593        2.58268919783090       -0.18875368249303
H            0.59069095085915        3.87552034686090       -0.27714657357321
H            2.17247938730453        3.28957519793590       -0.40752108928926
H            3.20060403980133        1.90121009434970        0.83227167148479
H            4.87779037502138       -1.34978551904177       -0.85029435220712
H            1.29978124996632       -2.66779864424798        0.47276261960543
