31
 energy: -55.439851611359 gnorm: 0.000773005963 xtb: 6.6.1 (8d0f1dd)
N           -4.45671591183398        2.74719369376587        0.60226792609163
C           -3.62757861809032        1.97517161770410        0.41322374060587
C           -2.60869171390870        1.02324759609155        0.17460899013139
C           -1.32992216248242        1.55820735854875        0.09064101490818
C           -0.06402682580479        0.99847548149886       -0.09164212645364
C            1.02713119411686        1.90347154835815       -0.24612116143292
N            0.80932261517982        3.25578164334095       -0.41393600487529
C            2.34745343474295        1.46123186699121       -0.16318206884166
C            2.62193719389543        0.12513551683763        0.01662261974690
C            3.84040932730363       -0.58108062306167        0.12870560934509
C            5.10983299857894       -0.00715737162016        0.12768616937651
N            6.14930207380354        0.48649177701420        0.11982465627382
C            3.52336042574734       -1.94727635464664        0.23345052362653
C            2.14522103953992       -2.11295012877900        0.18619185068413
C            1.54352344724325       -0.85218977592016        0.05332996729930
C            0.20391331239988       -0.43754814242010       -0.04139267429501
C           -0.77132541051447       -1.43492369313323       -0.10847795527843
C           -2.16230507172886       -1.41080364121514       -0.14545132758076
C           -2.77372685116769       -2.67763338106350       -0.30042988897634
N           -3.28040359585510       -3.69980419456872       -0.43004826910700
C           -3.04534886697167       -0.31717818614696        0.00618677673199
N           -4.37192472597496       -0.55732776855447        0.00448818692078
H           -1.32674249925578        2.63386168655404        0.23116225368383
H            1.63849428279076        3.79705099010678       -0.60145726213921
H            0.00442845255384        3.55312982762853       -0.93976190953716
H            3.15495497602400        2.17645811693627       -0.24336173864614
H            4.24618525178893       -2.73646243633770        0.33744949608339
H            1.64920079223823       -3.06347208577230        0.25459522989497
H           -0.36533283909144       -2.43822099279332       -0.16051177609014
H           -5.02642754193542        0.19487477484304        0.14180284226245
H           -4.71738003883025       -1.49804783448611       -0.09000111681377
