31
 energy: -54.652286936865 gnorm: 0.000617795741 xtb: 6.6.1 (8d0f1dd)
N            4.57627198923360        2.04370016706547       -0.30634483822276
C            3.63358978228569        1.38533740443914       -0.23851396223926
C            2.51241382057045        0.56721212627445       -0.16397639768627
C            2.54030563892246       -0.86041219931950       -0.20870435950422
N            3.66577438201662       -1.60797813510041       -0.29642811986469
C            1.23101330040161       -1.34438215198808       -0.07474621560695
C            0.89244930141191       -2.68885682083041       -0.11953804769985
N            0.63773319582816       -3.81453415208182       -0.13707228271300
C            0.35042179310326       -0.21348578337539        0.02825416071537
C            1.17586136466617        0.97006054945468       -0.03766642948204
C            0.60454894806120        2.22869376374294        0.13927579341766
C           -0.76159256607748        2.36446178043547        0.25575501405711
N           -1.30673960468385        3.63037592647452        0.38562096003779
C           -1.62615178493720        1.21938757112187        0.09918393944269
C           -2.97313239220035        1.45628609737355       -0.17797431357779
C           -3.95537489201507        0.58855503695873       -0.64491622382871
C           -3.83742987373223       -0.78628249889739       -0.75832423563711
N           -2.98029885317724       -1.55224269142421       -0.12607304164073
C           -1.85839725356120       -1.24377464121882        0.46159604765305
N           -1.43124466563835       -2.07514804245734        1.42252356112562
C           -1.01710580110870       -0.09196501267484        0.14531479495273
H            4.52566994536773       -1.15401459314936       -0.55266540811177
H            3.57826423593077       -2.59253948411863       -0.48207442813329
H            1.24147735002778        3.10089120657260        0.18833865837281
H           -2.12240261540990        3.72173459451948        0.96969952434378
H           -0.62498941023468        4.35801924973080        0.53535068398409
H           -3.26209710546266        2.49899319147748       -0.19615544155533
H           -4.86974252082449        1.03681862310103       -1.00781586653671
H           -4.57591995077903       -1.33422718836185       -1.33264851523599
H           -1.92255316699009       -2.94546949080271        1.54838598024569
H           -0.48327224429474       -2.01911406384140        1.75438890312829
