33
 energy: -63.686749734036 gnorm: 0.000677375819 xtb: 6.6.1 (8d0f1dd)
N           -5.72334919948563       -1.01205494798524        0.83361525699985
C           -4.59835428601649       -1.01794265957131        0.59803126969285
C           -3.22915147078451       -0.98292803650369        0.32115414295218
C           -2.43629027066526       -2.03582096221784       -0.12111413598810
C           -1.11268840445674       -1.57805731786125       -0.21698336167884
C            0.05492983868931       -2.24795486792646       -0.57760092949589
N            0.06308059166227       -3.51686417405021       -1.01882104708223
C            1.28370878086311       -1.54498819050168       -0.39162720795670
C            2.45957885122553       -2.25952246976152       -0.69438064519075
N            3.33313226029200       -2.90831942701343       -1.06433946370604
C            1.33154699969980       -0.21015079091705        0.01533508350741
C            2.54153731790618        0.30474414587344        0.57354614955531
C            3.46603056414573       -0.62673561866711        1.09997633961624
N            4.22019600247015       -1.31636415717871        1.62297325964327
C            2.87523840171959        1.63217298622149        0.82413090849302
N            2.35279049607531        2.73109445247289        0.33933643605957
C            1.20711524806529        2.85587670672248       -0.30800352360022
N            1.06886464624926        4.02761109492182       -0.95824077891396
C            0.09460336838300        1.95761776733836       -0.27545596625125
C           -1.09553527159901        2.51097316472781       -0.76965371659957
N           -2.03907253588840        3.01501682628306       -1.19798562641014
C            0.09933639505921        0.57202237518427        0.00908233626153
C           -1.08852372706637       -0.16935874557615        0.11409920081368
C           -2.41848797550921        0.18168519540660        0.48341651245263
N           -2.88405595500553        1.29697664244985        1.07259074853460
H           -2.79315195823293       -3.02718653945691       -0.33206558581901
H            0.93668473412031       -3.98293248336131       -1.20005776329447
H           -0.79391672257555       -4.03515289278682       -1.08544668752048
H            3.76169315184544        1.80625283129962        1.42642401165652
H            0.21568590040365        4.27738262239454       -1.42735789225046
H            1.83371243055895        4.67862586525250       -0.91906547621754
H           -2.35446867167775        2.14990845712016        1.08691858465663
H           -3.87837691857107        1.36710690056764        1.21904123688103
