32
 energy: -59.177932799941 gnorm: 0.000903355107 xtb: 6.6.1 (8d0f1dd)
N            6.17342763592328       -0.97322460948697       -0.82571406350757
C            5.08282441918998       -0.66416235404782       -0.63667305390862
C            3.75552034191922       -0.28879707930914       -0.40105075350699
C            3.30647331680429        1.01795376742506       -0.16140659345939
C            1.91826430551717        0.96134240760338        0.00501541598832
C            0.97716764095441        1.95167375185423        0.31666691666979
N            1.33620058517043        3.22060137822824        0.56510333353530
C           -0.39330975202370        1.57518501881156        0.34111324477910
C           -1.29356075260171        2.59040400535735        0.71373398497406
N           -1.90040175365077        3.47475592546732        1.13048595783703
C           -0.83593832083356        0.26404612779611        0.08116010432523
C           -2.19648248324084        0.06087190060907       -0.23493373806855
C           -2.95183775447926        1.18010983455220       -0.64389834231918
N           -3.63295162008887        1.99255126998822       -1.09177985891145
C           -2.91888626312458       -1.16678766482706       -0.31105321782097
N           -4.15261473793002       -1.15056184027834       -0.85465899053657
N           -2.57493051625552       -2.34634063238941        0.17842897101104
C           -1.37061522523976       -2.76607211858236        0.51159078556514
N           -1.34792137999350       -3.99803742045148        1.06576103439682
C           -0.12517542517028       -2.14383782347168        0.26073052836667
C            0.15667031815960       -0.81160279863303        0.04321161511149
C            1.50751764383387       -0.41044010052182       -0.12135170392883
C            2.65774260248842       -1.16571398254176       -0.36472449747281
H            3.93481508516152        1.88916314667033       -0.12153110362040
H            2.30241611459911        3.48798181656743        0.51250267982005
H            0.63869873096155        3.91579153256035        0.77474869303365
H           -4.57502221544679       -0.29425629925607       -1.16957566333482
H           -4.68910059881635       -1.99937324086023       -0.82662330020529
H           -2.22170044172479       -4.45908881691659        1.24702248970503
H           -0.48889881919804       -4.41766068252464        1.37127309265050
H            0.73112088731021       -2.80067864316994        0.33280372362655
H            2.72061750282471       -2.22464865212101       -0.53505315979352
