29
 energy: -51.997091135873 gnorm: 0.000445799067 xtb: 6.6.1 (8d0f1dd)
N           -5.02727959232186       -2.87487046018766        0.12979849052163
C           -4.11170283562368       -2.18650811722400        0.05819831401067
C           -2.97520671286980       -1.35141808878580       -0.02218275290817
C           -1.76119049794312       -1.97527545275190       -0.35199426252667
C           -0.50190419433853       -1.43971697020397       -0.37485168477598
C           -0.02721179126389       -0.12451048090323       -0.12535556183534
C           -0.85478317185328        1.06804630034524       -0.08666132852673
C           -0.24472206534184        2.32205035862120       -0.19799487424607
C            1.12702908109780        2.49540756873466       -0.26068655284625
C            1.94564886460964        1.39031635412572       -0.14144834952864
C            3.34415546548656        1.25958295152682       -0.11160960983927
C            3.64665597351531       -0.08895074556634        0.06582285141683
C            4.91425978099609       -0.66376946737918        0.20112659434904
N            5.93162828195215       -1.18314548241537        0.32818341284996
C            2.43698740903298       -0.83954890933805        0.13957191932687
N            2.40642966580443       -2.17657231745370        0.36089167770043
C            1.35500909774802        0.07120512657415       -0.02872774243092
C           -2.27483683937941        1.05559573315098        0.10618577607715
C           -2.89947189985582        2.31516408083442        0.30035835589731
N           -3.46632639455828        3.29966346294204        0.46359511346870
C           -3.18106439731583        0.01153509817972        0.19446703432518
H           -1.83894789101800       -3.02973556136352       -0.59158710023060
H            0.27388919763852       -2.12891052022137       -0.67966575442280
H           -0.87722516478695        3.19621269503434       -0.23495463948953
H            1.54496843647304        3.48489390954411       -0.36784591046808
H            4.05772385466824        2.05745956338152       -0.19427016185209
H            1.58292140036124       -2.58716495329291        0.77106560601609
H            3.28670657185357       -2.60896299470582        0.60050389039297
H           -4.20337588256659        0.29954921619903        0.41750973867442
