32
 energy: -59.962142127132 gnorm: 0.000321979740 xtb: 6.6.1 (8d0f1dd)
N            5.10259886842054       -2.50807718284284       -0.56777763216676
C            4.15591187811493       -1.88832865800225       -0.36698890543445
C            2.99815678829478       -1.11740401788253       -0.13133414209244
C            1.86233883970601       -1.83728523598745        0.23181197361303
C            0.55434625263469       -1.41883643564583        0.38329486592397
C           -0.28046600801834       -2.45064610329120        0.87638441340247
N           -0.85457997666016       -3.32497506978797        1.35011801039846
C           -0.02929301330967       -0.12840266881815        0.16186064784098
C            0.72122995644727        1.10986394086640        0.21581985557072
C            0.00228697873886        2.31267177354943        0.37306708317976
C           -1.37092824179024        2.39114925921566        0.32613715949192
C           -2.09654696131950        1.23763844046668        0.08190910188317
C           -3.47827137422644        1.00238141058687       -0.10279852734225
N           -4.47578877699557        1.89798389270457       -0.07972087543579
C           -3.63669657578306       -0.40055678245772       -0.34938926077615
C           -4.87356397395236       -0.99416364410559       -0.62192642691944
N           -5.91701804380960       -1.42091820845594       -0.84336793528113
C           -2.39652001034790       -1.01504979282924       -0.28794726463807
C           -1.41224637588635       -0.02743609103977       -0.00582012459086
C            2.13346741012842        1.23975279979740        0.09249696809421
C            2.64096119549349        2.55753066965894        0.16830171941802
N            3.13425206890903        3.59486654056301        0.23588997266368
C            3.14555341788537        0.29148641445441       -0.19801013884526
N            4.37347487819327        0.75339774323743       -0.51795050159534
H            2.03014707023525       -2.89757092232531        0.39287836581089
H            0.56205479341398        3.22463625462246        0.51083915362420
H           -1.85586277891904        3.34935932257060        0.44450942985439
H           -4.29135372118077        2.86891314079043        0.09871356290299
H           -5.42424049627359        1.59571601194072       -0.22445911210484
H           -2.22837951205612       -2.05767918329309       -0.47602203689808
H            5.12928919192680        0.10536131850852       -0.66652225099328
H            4.56970882878621        1.74024638093070       -0.51660318605864
