30
 energy: -45.315996267071 gnorm: 0.000493546950 xtb: 6.6.1 (8d0f1dd)
N           -3.84130727610688        1.99653577267696        0.08159940181853
C           -2.81499197861700        1.07362611486576        0.02646795605037
C           -3.19401927927019       -0.26849911579137        0.03694522866023
C           -2.37772012213052       -1.39286039242555        0.05964260633376
N           -3.01292357776673       -2.61339270641887        0.14922120671480
C           -0.97973692727550       -1.43231215701769        0.04602071293956
C           -0.00172167551610       -0.44541367200499        0.01861346026270
C           -0.25563436874219        0.99646293876418        0.01531705275048
C           -1.52284263385781        1.59066220332605        0.01919561539563
C            0.83511590884207        1.87300073823752        0.00536351927843
C            2.16437343879043        1.46674287144504       -0.01716678987042
N            3.17052271778851        2.38695987084285       -0.08050713021694
C            2.43710523940365        0.09184876097623       -0.02988357651341
C            3.63601618969848       -0.62827554901567       -0.05060755024453
C            3.31744518014325       -1.98579121416536       -0.04278384140887
C            1.93884299856825       -2.13211778043401       -0.01500899648104
C            1.34981161029755       -0.85025720778299       -0.00695285554909
H           -4.76381263516124        1.68156573363320       -0.16591538577440
H           -3.62607192081453        2.94424897863588       -0.17768628291358
H           -4.26204732953647       -0.45706176410735        0.04370889939267
H           -3.99134351469786       -2.65368031730752       -0.07925767157705
H           -2.47823904595466       -3.43498980096064       -0.07504651589418
H           -0.58193566549609       -2.43963172422795        0.05908189671262
H           -1.49439893431079        2.67650514507205        0.01378375608217
H            0.63443801681866        2.93695560278538        0.01292851480857
H            4.10417022662217        2.06827427489266        0.11008136682844
H            2.96021303672522        3.34308387460422        0.15014593347185
H            4.63185994719845       -0.21986762609764       -0.07400137896471
H            4.02993487158195       -2.79253845916459       -0.05547539736559
H            1.42842531967601       -3.07882142603574       -0.00079018022698
