29
 energy: -51.196829595939 gnorm: 0.000606662255 xtb: 6.6.1 (8d0f1dd)
N            4.87597538400991       -1.87951311658576        0.79244655871767
C            3.90435007024203       -1.29908364123419        0.58876581590939
C            2.76004936690608       -0.53925302916041        0.33745798022692
C            1.43422510640609       -0.95144839610901        0.43071554193882
C            0.59800936572790        0.14589954626788        0.12424302910587
C            1.45729256138461        1.27656945073401       -0.14926808811615
C            0.90670042312664        2.51200718082702       -0.46180166123357
C           -0.45590741417894        2.67419850362947       -0.37558039032366
C           -1.32254739754121        1.62750932133710       -0.00441252157787
N           -2.53806274179895        2.01345117784694        0.35376380443958
C           -3.60144333963963        1.31277514833106        0.65007215046431
C           -3.91146876333111       -0.00379011163324        0.36554299404565
C           -3.02919314729061       -0.99857307329271       -0.08614274861931
N           -3.57827174177470       -2.19310937231739       -0.40941818963137
C           -1.61505460420226       -0.88064825117192       -0.14469125175097
C           -0.97335878843167       -2.05923484465278       -0.57661367267814
N           -0.56150541784787       -3.05655554589206       -0.97852700078432
C           -0.79396345210221        0.26151871472360        0.05367931805363
C            2.79398809142401        0.83724271020151       -0.04314763896151
N            3.91657389986408        1.54950366128677       -0.26595337903738
H            1.12403743307229       -1.93070538216398        0.74122108043215
H            1.53617330764718        3.35392047093073       -0.71568593420299
H           -0.90777312379145        3.64260107911615       -0.52089860857470
H           -4.38501763499350        1.91175091638278        1.10726558568334
H           -4.94107099854375       -0.30855500335381        0.50229678436746
H           -3.00218667198129       -2.96933493385187       -0.68644730418394
H           -4.57179525845931       -2.32107095702680       -0.34577416285518
H            3.86652493788254        2.53626957860977       -0.44203358457574
H            4.81209372721379        1.12939497522428       -0.08676974347465
