33
 energy: -62.885865344455 gnorm: 0.000910752939 xtb: 6.6.1 (8d0f1dd)
N           -5.45624000293679       -0.38000227195408       -0.58815451661131
C           -4.35105675704439       -0.13140566650108       -0.39534848472805
C           -2.98549604404067        0.13245105262059       -0.15560276827669
C           -2.55966060387267        1.42635836913962       -0.40341976470084
C           -1.35903006757452        2.00078012271894       -0.01289839159001
C           -1.30002453115875        3.41129416179521       -0.07826843105049
N           -1.25488825626634        4.55777647684670       -0.11608946354490
C           -0.20427309381947        1.34044078016287        0.48272522103475
N            0.66370690069063        2.07784788929298        1.17986010000850
C            0.13571579905853       -0.03205022807814        0.20861375515997
C           -0.81641573807359       -1.12215909219639        0.17588491984389
C           -0.29654990562701       -2.43966680395503       -0.00237892891096
N           -1.13148596578786       -3.55929958051488       -0.11557228049524
N            0.98098883027308       -2.74139982324032       -0.09075508666206
C            1.86826324486126       -1.76935600029620       -0.06666165888072
N            3.18516436002352       -1.92863597298800       -0.19166332627583
C            3.70165774753563       -0.69498036878242       -0.23371752317678
N            5.02693453360565       -0.48909294508380       -0.34866928724347
C            2.71520308511085        0.32777386885750       -0.08682027752721
C            3.01477433129317        1.67690863605559       -0.18067713477102
N            3.30814573085439        2.79133086990087       -0.25208039760456
C            1.48455807464591       -0.35993185051635        0.04364931160440
C           -2.22427153492630       -0.96710468057186        0.34606648374465
N           -2.92527675151060       -1.95469401290707        0.91978463587958
H           -3.29808780441146        2.10067374248254       -0.82158157193724
H            1.54243691732013        1.68635075271481        1.47854819351249
H            0.56093080504668        3.08085067388200        1.21986758382562
H           -0.55411499487036       -4.36682240647187       -0.32122085350056
H           -1.88134275099295       -3.46573357357281       -0.78912934414015
H            5.60015621333600       -1.28472580284696       -0.56757583930903
H            5.36519419121575        0.43357116948975       -0.56113721093435
H           -3.93111078128889       -1.90485720787115        0.95451988894208
H           -2.45204756896675       -2.80364910851094        1.19598943191592
