30
 energy: -55.719519440697 gnorm: 0.000774963978 xtb: 6.6.1 (8d0f1dd)
N           -5.50298826764909        0.26343057015334       -0.81957947599572
C           -4.38127504710699        0.31029895939279       -0.57174336160746
C           -3.00359368270156        0.35677371608933       -0.27789046398281
C           -2.42930933557041        1.62811995445061       -0.26369480861722
C           -1.13386620475181        2.00888050330684       -0.01405416143315
C            0.04351520550179        1.24372922247688        0.10528424003819
C            1.25327019139333        1.97610268253143        0.25632205153945
C            1.22340925701116        3.37366968042171        0.44116236955973
N            1.26289789539241        4.51079231233469        0.59895214086213
C            2.51791048064562        1.38473443748442        0.21588055564429
C            2.58756398583666        0.03548058887374       -0.01779156001766
C            3.65612315296128       -0.88691677225311       -0.23901836969246
N            4.97006600139284       -0.63212468534560       -0.24586344980242
N            3.17894253475830       -2.11908711082918       -0.50461203602293
C            1.85504022652653       -2.05849144495251       -0.42685555270945
C            1.38663455564292       -0.75794113582747       -0.11634740884599
C            0.11034591075487       -0.19974875859200        0.04650662640494
C           -0.99880909954161       -1.07457845478270        0.24928313767311
C           -0.68601066196164       -2.36341390081257        0.73304839669678
N           -0.54997233238517       -3.40188786211209        1.21000021196764
C           -2.38533362061384       -0.87496190509289        0.07202803810076
N           -3.20528353308340       -1.93715167326273        0.22189780740532
H           -3.12721089425354        2.43553536991405       -0.45364825121692
H           -0.97320750020626        3.07967310763627        0.01787030996251
H            3.39722024117087        2.00255128532206        0.33270119495801
H            5.32503015405973        0.27574428469545       -0.00705691883574
H            5.60250963703101       -1.39738811319326       -0.40218651429844
H            1.28006471844570       -2.93865051805284       -0.64284407806018
H           -4.19882473433612       -1.82506591365730        0.10902388385250
H           -2.83769991276349       -2.83657102221737        0.48308549337317
