29
 energy: -55.994608542151 gnorm: 0.000810608023 xtb: 6.6.1 (8d0f1dd)
N           -5.71934336996260        1.02816022936677        0.62581911754025
C           -4.59918431855424        0.84654108998391        0.44556005852203
C           -3.24649484483042        0.55571344758249        0.24160942004637
C           -2.20139590630613        1.45815206051619        0.07147781096083
C           -1.00652806368362        0.72728117814978       -0.05739338844562
C           -1.33615537199951       -0.67931449349177        0.00279639110862
C           -2.72808290211906       -0.77444478032319        0.21197981147735
N           -3.48498895510116       -1.89980495113456        0.33126629563816
C           -0.36246258996511       -1.63820027711520       -0.28231670454973
N           -0.65068565754529       -2.94651135020373       -0.44722824303204
C            0.99595079140163       -1.20074172309095       -0.33459356320366
C            1.96229871551428       -2.19229112615300       -0.59209672107048
N            2.64615088999214       -3.06379529938568       -0.89840359907013
C            1.35093477208964        0.14487751695186       -0.18745812932880
C            2.64382004603711        0.52473347827495        0.26212992124599
C            3.48907138936818       -0.47822484232815        0.79310366763919
N            4.20762681157345       -1.22319859475096        1.28862709704094
C            3.11113905507511        1.83363969714661        0.48639366200074
N            2.70596621900085        2.96071694746771       -0.03595593342335
C            1.61554463982492        3.08101575545624       -0.77910628630351
N            0.51670975494308        2.39729266387765       -0.72295576063788
C            0.29696673923601        1.16590691171501       -0.28556866868412
H           -2.28447878687445        2.52773326447865        0.05770816585114
H           -3.06069362284459       -2.71721108286432        0.74063428728168
H           -4.45158181829604       -1.74950112782025        0.58235357088878
H           -1.59613589295218       -3.21606789316887       -0.65814331307813
H            0.08982418643436       -3.56459700492201       -0.74333691780617
H            3.99100397540656        1.92671992801868        1.11694911530435
H            1.59222039775567        3.95435542235171       -1.42388448272852
