28
 energy: -51.485657546050 gnorm: 0.000682827173 xtb: 6.6.1 (8d0f1dd)
N           -3.77242995268387        3.05632530590947       -0.61756364313096
C           -2.94093765348762        2.28735784664680       -0.43894050951113
C           -1.87147581507988        1.39504946867072       -0.20732074432711
C           -0.58386720026626        1.90922848549646       -0.04463930809709
C            0.54131124441264        1.10566077226950        0.15233494992080
C            1.80415210425616        1.76922959318027        0.42655723726202
N            1.73981447650919        3.02169534461306        0.92799247696937
C            3.06230148709669        1.28345421383249        0.11357753172571
C            3.38728184979080       -0.01457090941666       -0.31341022633511
N            4.56453488850939       -0.23957329556143       -0.92631806082418
N            2.70651022504698       -1.11824380288252       -0.01309020370519
C            1.46060229556933       -1.23989817582722        0.31189965627625
C            0.39019848143096       -0.32046279647700        0.16992074350850
C           -0.91438767923093       -0.84193534532080        0.07859391685793
C           -1.46174372654462       -2.14061956901271        0.08865736419108
C           -0.82701459738299       -3.37119258753037        0.22679172467307
N           -0.32108622657803       -4.39967280500861        0.33897106079823
C           -2.85595213871783       -1.95779513038767       -0.08146936108875
N           -3.20707337952963       -0.68780910454870       -0.20336328749411
C           -2.06615404962771        0.02040487824605       -0.11813225490221
H           -0.47221140289421        2.98036318873436       -0.13516952058817
H            2.58632880714709        3.52363114782283        1.12905526175576
H            0.86977367048058        3.40622264671000        1.24814528850816
H            3.88454807848097        1.98509194012488        0.19143296809940
H            5.20183099916668        0.50623897303174       -1.13640548249726
H            4.81295900200905       -1.18869663236282       -1.14438012962219
H            1.19486761270360       -2.24309942898469        0.63080229462494
H           -3.59588897978575       -2.73734360786668       -0.11390984054726
