30
 energy: -55.717384069453 gnorm: 0.000736033712 xtb: 6.6.1 (8d0f1dd)
N           -5.44100294689818       -1.74803339730221        0.36351805362909
C           -4.34493771889832       -1.41925334141390        0.27868445270783
C           -2.99034598246940       -1.03023370666237        0.17993792489698
C           -2.03334032875962       -2.01759707105011        0.47327333375325
C           -0.67309720328921       -1.95210435102316        0.34167434212196
C            0.19050668029423       -0.86685196363188        0.04930682910891
C           -0.20541485615361        0.52898523337556        0.02850070615738
C           -1.53353757080273        0.95523423172284       -0.29383157376661
C           -1.66313344334185        2.24930448334438       -0.85919308180735
N           -1.83994999171400        3.23267827977529       -1.42401563234726
C           -2.74007408999248        0.27461179608229       -0.23902262405938
C            0.76920859440745        1.51754163413140        0.23177622145600
C            0.41439037336880        2.84901998328010        0.52919089203085
N            0.26761427125899        3.93269543743045        0.88390263873308
C            2.16947165774801        1.24410381621808        0.25245502571013
N            3.05433625007486        2.22673941960863        0.47530151895669
C            2.55089462632811       -0.07276875797039       -0.00215066414060
C            3.78659860467727       -0.72223058678605       -0.13667728905191
N            3.64045578561870       -2.02883276375675       -0.35132088185266
C            2.32363706698678       -2.29495824614218       -0.34170838388405
N            1.89083504819529       -3.56141397907363       -0.54723076260125
C            1.55449767580090       -1.11068899818521       -0.10582104859897
H           -2.43986787426610       -2.96912942698343        0.79583485018461
H           -0.14528115805449       -2.86372951715513        0.58978557505036
H           -3.61069721536443        0.85195406467935       -0.53215925566844
H            2.73674805552032        3.16684190338040        0.64662308544898
H            4.03875487106446        2.03003769564359        0.46853612520724
H            4.77162887657247       -0.29339233321236       -0.10518526126630
H            0.97592496449930       -3.70631896491866       -0.94226378537393
H            2.61309869428879       -4.20499432180463       -0.83249606013432
