33
 energy: -53.267031200770 gnorm: 0.000735290553 xtb: 6.6.1 (8d0f1dd)
N            5.04906043701796        0.37181911631439       -0.67072529661867
C            3.95678355599009        0.07421948034342       -0.45044363744366
C            2.63324688445432       -0.30545742583909       -0.16750172717776
C            2.47783039900885       -1.65237339658136        0.24747698615988
N            3.60935014973471       -2.35214301459221        0.55018889313783
C            1.26266022365846       -2.32734945308880        0.32243902313381
C           -0.00999038208339       -1.83774708084791        0.11557940853730
C           -0.51079812434611       -0.53896855521741        0.01047636160350
C            0.28032759619555        0.68141121340663        0.06207277533465
C           -0.38206546170532        1.89446262164711        0.35288159318477
N            0.35039980097988        3.08261500274602        0.60047135725325
C           -1.77056671233748        1.98753920943034        0.39713752284113
C           -2.55775424144800        0.89177198702431        0.11930967363874
C           -3.94081343300449        0.71211301110473        0.03340161614790
C           -4.17207170917111       -0.64079214787120       -0.20776332753796
N           -5.40413571039991       -1.24470429953532       -0.31110360651702
C           -2.93708872563596       -1.32843808787181       -0.26174937773958
C           -1.91701910550739       -0.40766030955059       -0.07319732446976
C            1.66139010849953        0.70985957002410       -0.31983111688036
N            2.09935796969531        1.84161882097299       -0.91987877208962
H            3.54903476520885       -3.35119716109476        0.63912370275849
H            4.50816550549863       -1.95810359119586        0.32722425401228
H            1.33822653910663       -3.38616091168895        0.54085134753942
H           -0.77973130711163       -2.59755158849063        0.12577880017289
H           -0.24793092980975        3.80931501083391        0.97123163047601
H            1.14949848498397        2.94233985950847        1.20556961052175
H           -2.22447212451414        2.94206704884762        0.63231417383373
H           -4.69001447557709        1.47528808410162        0.13452104756867
H           -6.17256036474375       -0.63933148721585       -0.55267015503575
H           -5.41819717353921       -2.14250254058258       -0.76815250051777
H           -2.84932294632061       -2.38387634070381       -0.44730255602214
H            3.07560050960432        1.94852300387742       -1.13901156826598
H            1.49339758281909        2.64665164788450       -0.94561018353987
