27
 energy: -50.968631236144 gnorm: 0.000726994367 xtb: 6.6.1 (8d0f1dd)
N           -5.11547128407542       -0.93705354106508        0.22107354487745
C           -4.04823216153949       -0.50850720373540        0.16087805334417
C           -2.79618118585874        0.08567916604372        0.08629854290016
C           -2.56897873821009        1.50567399407746       -0.00441117789618
N           -3.53633468517517        2.43491483776954       -0.00556884021656
N           -1.27653149160460        1.82926585717634       -0.07965586996968
C           -0.60397627125365        0.65983293728489       -0.03863440620308
C           -1.52130519953595       -0.47429367092318        0.07350657756649
N           -1.11077527512376       -1.73752595077428        0.13811519255085
C            0.18276398938466       -1.97587440978865        0.05751827627672
N            0.51702925430426       -3.29770708956027        0.11843747122160
C            1.19671275050810       -0.96470346269855       -0.10197063680822
C            2.50563465097849       -1.33404100946661       -0.38351610831139
N            3.62936861686401       -0.64860581207453       -0.26845902043703
C            3.74200677404508        0.64090562825098       -0.01324055188443
N            4.91462120669674        1.04501038870077        0.49485924089291
N            2.89679614616551        1.65140296063182       -0.32329915882375
C            1.60996843088360        1.53300824886464       -0.38804459980757
C            0.76086624095712        0.43116325453504       -0.11236386298732
H           -4.50088919732127        2.15566049770849       -0.00680982325307
H           -3.28586097572969        3.39959733059719       -0.12381207873383
H            1.42774350518790       -3.57980655482180        0.43109352092380
H           -0.25438881553501       -3.90497664756219        0.34424383880549
H            2.68985624205009       -2.36320454981055       -0.67779665359925
H            5.63901115156764        0.37015124970322        0.66664946107089
H            5.08854976749050        2.02899291900036        0.59946079701529
H            1.08461895267889        2.44765956733692       -0.64672136441474
