28
 energy: -50.728972531665 gnorm: 0.000462565071 xtb: 6.6.1 (8d0f1dd)
N           -5.53363775286741       -0.70478904743841        0.48474688014983
C           -4.48900591975885       -0.25099069310596        0.32022322602253
C           -3.22194149918466        0.28885837731009        0.12014280237219
C           -2.90063017768671        1.62419324317070       -0.15599045125400
N           -1.58964280756316        1.82107683222936       -0.30819830900862
C           -0.99777410750027        0.61477106303678       -0.12944577253884
C           -1.98298403059631       -0.39755081175325        0.13776319338792
C           -1.58737131550566       -1.71711685976603        0.31422977100363
C           -0.25417901861588       -2.02847944383989        0.17303448385500
C            0.73086774389553       -1.05231846966638       -0.07482984848248
C            2.08941257813240       -1.48599642400042       -0.34990374812527
N            2.25548700680011       -2.68049050039309       -0.94305187760320
N            3.19397520588919       -0.87084492631157       -0.01627771536094
C            3.30776615022857        0.39083058247076        0.39429900606142
N            4.40280465280784        0.66337346775445        1.12658074381043
N            2.57551558763063        1.43527350202805        0.04784012627047
C            1.31089880918689        1.41426916399748       -0.33910953086249
N            0.80757657872200        2.54889304526093       -0.80715046222157
C            0.37087899587186        0.31322485266395       -0.17191048011240
H           -3.58974634303431        2.44405081521735       -0.25757190780813
H           -2.31453767989892       -2.48606465885503        0.53162311914911
H            0.05783992894354       -3.05521547439274        0.30324895350128
H            1.46855637396890       -3.21499479091971       -1.26288220812283
H            3.19057953801091       -2.99109321393115       -1.14179134286017
H            5.07070128567161       -0.06428072237358        1.30373870741453
H            4.62062706642249        1.62069132218969        1.33542425252957
H            1.40497067190827        3.35970306945536       -0.81401055168056
H           -0.23523149607870        2.61674029816228       -0.78811828618664
