32
 energy: -53.571869762642 gnorm: 0.000399517397 xtb: 6.6.1 (8d0f1dd)
N           -5.07007408209579       -2.35753514335811        0.13949303679194
C           -4.08798685232448       -1.75848567260593        0.08416001753218
C           -2.92892004614986       -0.98696289472614        0.03445133285798
C           -1.60930306796247       -1.44982221733012       -0.00545294144972
C           -0.74750856599784       -0.34331974840760       -0.01029211544275
C           -1.57426816577093        0.83784265159423        0.00586902668008
C           -0.97909032908136        2.10553895048437       -0.06952976988103
N           -1.73858316623082        3.24445159735748       -0.12064684242302
C            0.40812258985497        2.17647439803867       -0.05241484699468
C            1.25293504584938        1.06132693543385       -0.00774875172203
C            2.62914285770718        1.31408150964237        0.03112653720851
C            3.73195798823552        0.45731365978069        0.05279255318552
N            4.96918214104006        1.03896387085820        0.06544927197781
N            3.80199195891651       -0.86942550975540        0.01014667869449
C            2.77552046191420       -1.70316926024797       -0.04346245235700
N            3.16153560457452       -3.01080834279715       -0.04989835194039
C            1.39182032065149       -1.45775026335050       -0.04372349855452
C            0.66412323414847       -0.27527879705960       -0.01932562336775
C           -2.91598746923654        0.43287366646636        0.05830469219129
N           -4.04142971294054        1.23742885495195        0.09102866266235
H           -1.34211324169977       -2.49041139463170       -0.01923553254272
H           -1.25512169133037        4.09214214844208       -0.37378717538340
H           -2.66213147971389        3.14509457571978       -0.51058319621409
H            0.86427967460085        3.15719185208223       -0.08939215936642
H            2.89376730057298        2.36614657176413        0.04857510186218
H            5.74863528163455        0.42551221777065        0.22740005721937
H            5.06530956555792        2.00507655376165        0.32086079921064
H            4.14120637676963       -3.19664258474660       -0.17272096386408
H            2.50170509461092       -3.73368342161977       -0.27209118632566
H            0.79451458142952       -2.35989441259698       -0.06549744527581
H           -4.89541237785809        0.71643052771727        0.24237664161720
H           -3.97115800147610        2.04521166076762        0.69384208511355
