28
 energy: -52.278098766085 gnorm: 0.000564409777 xtb: 6.6.1 (8d0f1dd)
N           -3.82058447573962        3.33627252920793       -0.00144403313652
C           -3.09543979403578        2.44701725359669       -0.00222133276739
C           -2.20990938605772        1.33956014991277       -0.00157930980843
C           -0.86139484698891        1.68500397167952       -0.00082372256700
C            0.30656226343426        0.92223471307022       -0.00038462966988
C            1.52370271027704        1.63978932881119        0.00032881653778
C            2.76563081440004        1.03038830622912        0.00074462127646
C            3.94361110942906        1.81090023418945        0.00127395724092
N            4.90413320518265        2.43724304338931        0.00210561188788
C            2.84639471013273       -0.37112540244994        0.00048475074688
C            3.85975368690924       -1.31859843294559        0.00072875760536
C            3.20030022649483       -2.55897792296152        0.00011892804646
N            1.87134780971699       -2.45606317134021       -0.00046226519832
C            1.60313104230332       -1.13659356312448       -0.00026950879465
C            0.34550739268287       -0.52896478217159       -0.00071617379156
C           -0.75874720996687       -1.39832104149782       -0.00143308123682
C           -2.11716019834475       -1.17060782158512       -0.00200683505908
C           -2.92614881906237       -2.33654622463035       -0.00246294265761
N           -3.60463271110202       -3.26131204725058       -0.00331241875371
C           -2.82893617352237        0.06715340231871       -0.00209912895929
N           -4.17246576693976        0.01408910040151       -0.00275664226986
H           -0.69647041959212        2.75820698402419       -0.00057982107083
H            1.48079843314031        2.71996888951503        0.00053594528733
H            4.91833265271337       -1.14936033130466        0.00125845199925
H            3.65969714828204       -3.53140198380698        0.00006334233805
H           -0.45565440369458       -2.44114436279108       -0.00151199895340
H           -4.71696024005921        0.86154981707102       -0.00285379112374
H           -4.64746057349602       -0.87417292385654       -0.00314736464775
