29
 energy: -45.609638549529 gnorm: 0.000748659335 xtb: 6.6.1 (8d0f1dd)
N           -4.14188879092898       -1.21849852438980        0.48246947908230
C           -2.88332544395644       -0.73363257894766        0.22996621492839
C           -2.79142792147257        0.63863077844094       -0.04584287491028
C           -1.67684753340461        1.42552823568755       -0.22633296635655
N           -1.92133046602481        2.73599380349043       -0.55580308393465
C           -0.29437773350118        1.07365715078332       -0.00379062864325
C            0.57492573571604        2.15040628740732        0.29103489995064
C            1.93664979118203        2.02240512460131        0.40684173868959
C            2.51055072843538        0.78022622742553        0.17280854535596
C            3.81800133219272        0.27076974108752        0.15381879869800
C            3.68590485133473       -1.07708633151615       -0.12098882351707
N            2.40391843340307       -1.45447943162652       -0.27697192035217
C            1.65075331970663       -0.34524304872093       -0.10143633823184
C            0.24331006909105       -0.23923675595323       -0.12814782657964
C           -0.50833404331930       -1.47337299042687       -0.21236885081352
N            0.19455204656139       -2.56704546797964       -0.51733761972540
C           -1.85855793158415       -1.65534273951674        0.10698864286925
H           -4.22523590999401       -2.15633192328253        0.83469198749145
H           -4.85154646163273       -0.56986271865419        0.77539389727723
H           -3.74481433894370        1.14955889359176       -0.13263238526433
H           -2.85636435898551        2.96882696850901       -0.84573190396728
H           -1.18287402483576        3.25654490049005       -0.99591388246447
H            0.14049175967961        3.11741945063100        0.49806813194788
H            2.54648318539476        2.87718469551036        0.66564983767336
H            4.72992067999523        0.81349666003845        0.31325026710221
H            4.46978892573837       -1.80834383919938       -0.22460975845449
H           -0.24904764172362       -3.46805535693576       -0.44800068343729
H            1.24371044879380       -2.44696776236812       -0.51888549585108
H           -2.15917035611765       -2.69308682377679        0.21649838583710
