27
 energy: -46.159256894762 gnorm: 0.000369565448 xtb: 6.6.1 (8d0f1dd)
N            3.54610284353200        1.45155958589959       -0.81713728705038
C            2.71862385659613        0.49685546694342       -0.29882016392296
C            3.31431081793316       -0.65060613717117        0.27507220274827
C            2.60616422293364       -1.74643203886584        0.72005489577344
N            1.36157804079699       -2.10288694754781        0.49056041888486
C            0.35069837418734       -1.38043511692725        0.04313283602456
N           -0.75758387249067       -2.04510050395182       -0.23901481024853
C           -1.94174150876163       -1.42908035398785       -0.28895990231776
N           -2.98878979499729       -2.19749091461485       -0.67657102450584
C           -2.07448047825104       -0.07342896085399        0.03484881991003
C           -3.14791411907618        0.82699345120428        0.10818343467692
C           -2.64909708702547        2.11475529603353        0.28005081530117
C           -1.25083513606545        2.06468808460612        0.29967738489823
N           -0.36277664339924        3.07734843514105        0.46549733257380
C           -0.86498067174103        0.69921129182213        0.16481874642352
C            0.38074680228498        0.11191796063155        0.02213734177711
N            1.45342598092565        0.85636344819632       -0.23754472986395
H            4.48913956532246        1.20317494528866       -1.05630830592839
H            3.11760375937347        2.20955529709189       -1.31984692377629
H            4.38878985397524       -0.64050678838299        0.40009211765161
H            3.15722843161759       -2.49835762472180        1.28014853403525
H           -3.92404355524213       -1.88079464168670       -0.49423012364828
H           -2.81752411988587       -3.18558217762664       -0.75393238285480
H           -4.19144989542503        0.57559428601592        0.03256618403811
H           -3.23964766990260        3.00810859597900        0.37435055624405
H            0.59285419763589        2.83865713363536        0.24381312118926
H           -0.66866937285168        4.02277303354946        0.30964883386642
