34
 energy: -57.800959107549 gnorm: 0.000588721751 xtb: 6.6.1 (8d0f1dd)
N           -2.18665744798888       -4.06544947678399        0.31943712217955
C           -1.72428903178895       -3.01313255122589        0.23593307367849
C           -1.25708997775741       -1.69496426714653        0.13297876957232
C           -2.23823768921884       -0.67249454385722        0.19034327513110
N           -3.55098541909020       -0.99285564520520        0.41620737857291
C           -1.81114349113651        0.63038878750712       -0.00603594380227
C           -2.51808506819530        1.85816494348162       -0.07068059643937
N           -3.86477127739341        2.03240328964568        0.15100054314340
C           -1.62017099124202        2.85569635869383       -0.44968893887441
C           -0.33796824785478        2.31588771194529       -0.55798672856330
N            0.71146983074556        2.99576289910797       -1.08759811530885
C           -0.40811282984419        0.91884143331349       -0.22532133473906
C            0.56749347291897       -0.06217064559901       -0.07785584124743
C            1.92218906294089        0.31846781261870        0.22102435479877
C            2.04975835514841        1.53219369288823        0.91099367199383
N            2.20898927985658        2.49940395572193        1.52133410284042
C            3.13707255633425       -0.35158223554618       -0.02173180182055
N            4.29641807368780        0.35353522094770        0.17184358153743
C            3.27585185697952       -1.65540719125737       -0.51194009130675
C            2.29464829344354       -2.62362479466299       -0.59731687203133
C            0.94799751353358       -2.54994827423923       -0.30258160314766
C            0.12097595490431       -1.43909172413252       -0.05913183239875
H           -3.77676558591952       -1.97622910417852        0.37222635797021
H           -4.23938682502606       -0.37718962506037        0.01449244880135
H           -4.15127472886314        2.99958317281976        0.19986655192073
H           -4.26162808492176        1.46476494987016        0.88544550111995
H           -1.87245098185963        3.88531747121630       -0.62737568692973
H            0.62650690149253        3.99719397838385       -1.13106250908827
H            1.64437261304977        2.64136684817838       -0.97295639238852
H            5.15736957835371       -0.16393358781470        0.22089255713484
H            4.25536079933523        1.20620087021709        0.70665800925107
H            4.28691686977180       -1.95886826685769       -0.75226898097285
H            2.64334215008883       -3.60407498725894       -0.89928394325667
H            0.41879549961568       -3.49436625273077       -0.34867474943035
