29
 energy: -55.997047910929 gnorm: 0.000966243861 xtb: 6.6.1 (8d0f1dd)
N            5.44555582956710        1.67312423066918       -0.68365651131515
C            4.40236469496820        1.25167238884317       -0.46514609024858
C            3.11021349113307        0.73452444763919       -0.19425253454098
C            2.98602508078743       -0.65657947078028       -0.22326505057639
C            1.89193231003523       -1.41782570146908        0.14162506718242
C            2.13567583925053       -2.81351546850238        0.19299567520977
N            2.34436892000240       -3.94056107600242        0.24420352602643
C            0.56065536722890       -1.01129714974958        0.46529266110085
N           -0.21067044570683       -1.93608919149232        1.03963375803185
C           -0.01612593103505        0.27617154928115        0.20374237059514
C            0.74310711110934        1.51714567619086        0.21894573012553
C            0.01219225746945        2.73720917131271        0.29763238610253
N           -1.28280742809405        2.86845690671925        0.25793411836642
C           -1.99825139285104        1.76425485106348        0.09883823052910
N           -3.31903984700678        1.72415168150118       -0.02361898786885
C           -3.64345995278794        0.43600126158742       -0.21710350072553
N           -4.91715006106270        0.05664661424014       -0.39121890359548
C           -2.50934420849581       -0.42947947033471       -0.16504830228282
C           -2.58472117700941       -1.79293297363951       -0.41073585433639
N           -2.68145985754444       -2.92577903384757       -0.60447539470000
C           -1.39747436787441        0.42024927849499        0.04646945952640
C            2.12159123004952        1.66982930907979        0.10171348684472
H            3.88128013149289       -1.21002188025410       -0.48427149038761
H           -1.17466782391616       -1.74197521078742        1.25775842713801
H            0.11203641469875       -2.88668310958943        1.13986418032049
H            0.56686566415659        3.66479709260630        0.35441050697374
H           -5.13455034661021       -0.88994346254179       -0.64899029267982
H           -5.61238029250952        0.77488041491655       -0.49205508308972
H            2.47462198175548        2.69376664344361        0.16439206297455
