34
 energy: -63.409908494625 gnorm: 0.000695770082 xtb: 6.6.1 (8d0f1dd)
N            4.48056439363371        2.88998694766171        1.13283871287878
C            3.65502310889799        2.17768396513501        0.77245930364422
C            2.64976713795154        1.29290476245467        0.31897607797344
C            1.46967018839895        1.90601457118405       -0.09013956203845
C            0.20778104244257        1.38865253684019       -0.35748818223931
C           -0.85859527595865        2.34055353307296       -0.55624223224016
N           -0.55925626905908        3.65735097596605       -0.83040487778230
C           -2.17284687475160        1.96699999043175       -0.36507567047985
C           -2.47502923124290        0.65681568234120       -0.01021347597562
C           -3.69400490031027        0.03467036499833        0.31190840239042
C           -4.93211950984496        0.67218322215775        0.39618690444285
N           -5.94534075304775        1.21330474861538        0.45005284185150
C           -3.43666473192820       -1.32955120559121        0.55112875487963
C           -2.08626930574641       -1.59161954566911        0.34337774048929
C           -1.46809312194503       -2.81770814402832        0.57858844021395
N           -0.93833031332290       -3.82458141692895        0.75850754856446
C           -1.44303371052303       -0.35736251382198       -0.01996647329867
C           -0.12598650737595       -0.01508776179215       -0.29279495561522
C            0.83133437341680       -1.04745780620793       -0.63451894697626
N            0.34905924502637       -2.06680581081610       -1.36125929005231
C            2.19421093983207       -1.08250002850311       -0.30356581044599
C            2.86679636391653       -2.29570650350581       -0.57564230860001
N            3.44013265504640       -3.26388881413809       -0.80694967066207
C            2.99607961412693       -0.07978169046456        0.29443949543518
N            4.20119243481321       -0.43644892930125        0.77537362816848
H            1.52034643344836        2.98783338758006       -0.04959642927280
H            0.23395125379409        3.85441971506878       -1.41803406520499
H           -1.35707563861526        4.24767645505569       -1.00340368185205
H           -2.96659788374886        2.69258657053221       -0.47032565243938
H           -4.16923831500354       -2.05469246963439        0.85667263271501
H            0.90380842675680       -2.89670529083865       -1.50541195145606
H           -0.63897244247083       -2.13020583048617       -1.54344773896923
H            4.82971171949437        0.26281033358430        1.13538685905664
H            4.51118932319710       -1.39245884525181        0.71895002509689
