30
 energy: -54.145917849470 gnorm: 0.000730323271 xtb: 6.6.1 (8d0f1dd)
N            2.92728350827685       -3.09637601137154        0.04120246500643
C            2.40023811242346       -2.07286389332803        0.02978130559802
C            1.85064846167404       -0.77818253838132        0.02039724646134
C            2.77347943786463        0.29308474875847       -0.13979920710417
N            4.06070995593864       -0.02977826797946       -0.39498753800623
N            2.56623413591884        1.59316189408021       -0.03772796350110
C            1.39828921673427        2.20648406929657        0.14575027380969
N            1.53721287111496        3.54516603286737        0.34284325510983
N            0.14470754513306        1.80321604644879        0.08396488894896
C           -0.31997854382145        0.54526262632136        0.02289694818507
C            0.44049797707535       -0.70953973931543        0.09512355230231
N           -0.15817634222436       -1.89136902903718        0.17736701648017
C           -1.48697820487604       -2.02811568582180        0.13032679476771
N           -1.93864890255095       -3.29819201017256        0.21547781962362
C           -2.31888437528116       -0.91835866644683       -0.03861499453305
C           -3.70685495251552       -0.71072526844782       -0.15283727208130
C           -3.95589998595474        0.65100551337839       -0.26126119903462
C           -2.73626306850162        1.34099414562065       -0.21214284536409
N           -2.48923136291933        2.66038244592615       -0.25414561343748
C           -1.69246964275831        0.36974501890086       -0.07633254149722
H            4.72965815980631        0.71551823159556       -0.46495873327701
H            4.35504932668172       -0.98985288921222       -0.42986925834510
H            2.46258518550890        3.90006592727971        0.50074064791932
H            0.74111973709236        4.07783052499187        0.64182162091536
H           -2.91981621829743       -3.48965335198197        0.29025062635072
H           -1.26470546939801       -4.01971691390326        0.40125838014750
H           -4.46021689976346       -1.47897450277998       -0.15604667701750
H           -4.92344630305167        1.10669454476402       -0.36753850816585
H           -1.50801642593884        2.91020932643553       -0.23829102390397
H           -3.21544471059060        3.32895191951393       -0.43612919415741
