31
 energy: -53.836178143207 gnorm: 0.000897785354 xtb: 6.6.1 (8d0f1dd)
N           -3.29788000653792        3.24213200588382       -0.13771897996010
C           -2.76728064644951        2.22013911161236       -0.09019170358986
C           -2.12744962617740        0.97071414613686       -0.03609973290207
C           -2.92813835213144       -0.11220857334427        0.40853000578151
N           -4.13075616062313        0.19349859526285        0.95704488434403
C           -2.63785619755050       -1.45532212807235        0.19710450612603
C           -1.45274500276594       -2.05444125526716       -0.21782968861458
N           -1.55514407866844       -3.33260955855657       -0.65039325829817
C           -0.13654490516993       -1.49113076173376       -0.11876662590089
C            0.93061901663325       -2.39186172472412        0.06502579839099
N            2.20665786827323       -2.09119511124189        0.16085482550215
C            2.53020244747297       -0.81542636723428        0.10377211946136
N            3.76328923976496       -0.32133179413553        0.20903698995687
C            3.61534727585107        1.01415374394039        0.20391471468577
N            4.71032553589676        1.82809070830178        0.26284016636691
C            2.27933380862757        1.43067192510781        0.05133143672528
C            1.52660228731911        0.25912310591798       -0.03189085666815
C            0.17162748773251       -0.09031304173596       -0.18050613421569
C           -0.78102268670952        0.94672190199328       -0.45261288986747
N           -0.31651241609767        2.04445227448844       -1.07629178917731
H           -4.79029698133228       -0.53388694673326        1.16322002921206
H           -4.43886389408762        1.14956806928445        0.99646732188006
H           -3.47520448971968       -2.13100265464725        0.33598064901581
H           -0.74049297204039       -3.84441397592200       -0.93600796758223
H           -2.43540747918203       -3.81385749522043       -0.59972485444404
H            0.72844997566144       -3.44551238832434        0.21677015246256
H            4.57183189912039        2.75928286576503        0.61964040171899
H            5.55582401101525        1.36423456637419        0.55443089338908
H            1.96253304578038        2.45716362264577        0.09740349950062
H           -0.90824994621811        2.84563535988449       -1.21673022240949
H            0.64309335601055        2.06513953849449       -1.37733744589668
