30
 energy: -54.935045134160 gnorm: 0.000719606004 xtb: 6.6.1 (8d0f1dd)
N           -5.31293393503204       -1.64996678297120        0.00762986506053
C           -4.21804686693243       -1.29176180094586        0.00671193591632
C           -2.89513113018079       -0.83180788863440        0.00574422853603
C           -1.88324444980103       -1.79457543475287        0.00880917930002
N           -0.58211112525791       -1.70080865000191        0.00680555641694
C            0.16224653777520       -0.55766459213803       -0.00058246100242
C           -0.30416324171631        0.82138759385571       -0.00427043093932
N           -1.56807003597211        1.26719378017490       -0.00118948489581
C           -2.69226077696783        0.59332161671859        0.00269239475193
N           -3.79041540919171        1.37183927478969        0.00365925516547
C            0.66100323890197        1.85392872511616       -0.01244370129427
C            0.19569812624959        3.18446852128303       -0.01573966914626
N           -0.14057902948995        4.28256436891066       -0.01894964231125
C            2.04616430556328        1.62812089435962       -0.01884102656729
C            2.48620128118269        0.33193017950925       -0.01594169684310
C            3.79692356850308       -0.27228725653195       -0.02330767503480
N            4.95234945496461        0.41636964662234       -0.00997897188445
C            3.64891493227709       -1.65652231887084       -0.01535218457925
C            2.28146841815797       -1.96904751037666       -0.00435851261121
N            1.67060843784299       -3.14860544309857        0.00357102587981
C            1.53649609879835       -0.73627144739874       -0.00612593466703
H           -2.22998073427680       -2.82759673164352        0.01348120416318
H           -3.65437980577265        2.36815525805601        0.00192818459297
H           -4.71432408430652        0.97527738003099        0.00655613888702
H            2.71472765799144        2.47781609174061       -0.02434536594657
H            5.82872152471295       -0.06618312976412       -0.09927936213052
H            4.94046229327821        1.41582508791895       -0.10608832016679
H            4.45256009912439       -2.36915024556582       -0.01739732697430
H            0.64896001898595       -3.07926438472176        0.01009056657900
H            2.17628675228931       -4.01683371996905        0.00921963474465
