27
 energy: -51.778747820271 gnorm: 0.000559020148 xtb: 6.6.1 (8d0f1dd)
N            4.93884682382218        1.93738872314905       -0.18340082850126
C            4.00150609874875        1.27351650329376       -0.16241894524248
C            2.87657457621919        0.44503879315719       -0.12728461516405
C            2.88904951852112       -0.95470875289125       -0.13520961804452
C            1.57856977245714       -1.44471221358418       -0.06728174850822
C            1.22328916811302       -2.79018964986766       -0.08733485129828
N            0.90503786209009       -3.89789567110495       -0.07051758222841
C            0.69522263210409       -0.33106202930294       -0.02061577164501
C            1.52905908945931        0.86208640907321       -0.08226076110193
N            1.03469829438010        2.09185144986174       -0.08782101939082
C           -0.26133358359080        2.22982132793267       -0.02769363352898
C           -1.18883209573296        1.16290470772998        0.04564850464152
C           -2.60029718423367        1.45625627152679        0.11494017917441
N           -3.00853637078958        2.56239591737945        0.74871135981181
N           -3.53290725016698        0.78737401486685       -0.54599328373393
C           -3.43404797018999       -0.45702726716147       -0.93424353870344
N           -2.73092181227210       -1.40183157089308       -0.36563860158438
C           -1.61495236660952       -1.27264467410327        0.30868720213702
N           -1.30624706391375       -2.20490010180057        1.20643284641199
C           -0.68186895696572       -0.16773340271996        0.06814270897829
H            3.77163639500596       -1.56687723051002       -0.18421786189549
H           -0.62156145514170        3.24859295501511       -0.09423527311467
H           -2.35075311528789        3.19491735430524        1.16945458443600
H           -3.97974671710462        2.81983330720099        0.68567168277616
H           -4.13412325269214       -0.77753894666522       -1.69681647873669
H           -0.36805707029401       -2.28123981836656        1.56556785134574
H           -1.90102862333544       -3.01604396822090        1.27701797780959
