30
 energy: -50.110585899728 gnorm: 0.000416990710 xtb: 6.6.1 (8d0f1dd)
N           -4.13705650973450       -1.88727779777304       -0.73399792335398
C           -3.26896985804776       -1.17793559396931       -0.46980056897302
C           -2.22136764199398       -0.28801324694554       -0.16257929390508
C           -2.63484559150839        0.96521755847274        0.34920228530032
N           -3.94424496411069        1.11123946100728        0.66728344526475
C           -1.81036915262579        2.08423201934531        0.49827455938735
C           -0.47458066509050        2.21828664485096        0.19957629212603
C            0.51931811680728        1.28015198971014       -0.09057789879752
C            1.83746339605428        1.80041854513004       -0.31125247600955
N            1.99909102919504        3.16641556202936       -0.54243567829840
C            2.95543864697252        0.99923230730674       -0.21041103983938
C            2.80878906180426       -0.34508503198871        0.10586603924080
N            3.75928409011099       -1.25348337037614        0.31332229879565
C            3.10921520381151       -2.41236113964522        0.53739779324141
C            1.73318186634964       -2.30538077472274        0.43263883203618
C            1.47396837531455       -0.94285631068850        0.15723370748909
C            0.33718570182778       -0.15697469200015       -0.04770688017770
C           -0.91494594283220       -0.79432557496328       -0.33854676457713
N           -0.82827338206696       -2.04164815326440       -0.84167692515408
H           -4.59600867623913        0.36059822137524        0.51716706622711
H           -4.29265055642091        2.00383284499492        0.96515455286657
H           -2.31350920892149        2.97757829274325        0.84795420496877
H           -0.10243962308682        3.22964835847986        0.30609163338448
H            1.34701074737855        3.58480312413966       -1.18826916520133
H            2.95456053965546        3.42061466874003       -0.74526552399695
H            3.94323959636621        1.41159003726670       -0.35434994140224
H            3.67074251396359       -3.30150388094486        0.76777391525283
H            1.03395374016419       -3.09489866191797        0.63980001133479
H            0.08109498358475       -2.42177881485333       -1.04848318643254
H           -1.65678153128241       -2.55404884513814       -1.09250463709829
