30
 energy: -55.712041906609 gnorm: 0.000921369791 xtb: 6.6.1 (8d0f1dd)
N           -5.03753980768037        2.61241829147558       -0.49979521704183
C           -4.24933742132875        1.79401973405150       -0.34973776895494
C           -3.29803107649342        0.75775154749870       -0.16985818422972
C           -3.82042102615057       -0.55338117921483       -0.12116066574194
C           -3.14321432945857       -1.70096873358029        0.15471621819990
C           -1.75607170480394       -1.95827621318562        0.32774983916409
N           -1.48936106599950       -3.18658648773109        0.80801790492657
C           -0.66393266439000       -1.08670290744483        0.03133938065661
C            0.63754776041456       -1.63452006005094       -0.17105640164179
N            0.81045874409230       -3.00867775265599       -0.38888240668223
C            1.79088829200766       -0.83845003660969       -0.13708272335291
C            3.05130741629219       -1.43768970097500       -0.34515807056400
N            4.05164724681703       -1.96850808076668       -0.53365751824666
C            1.68386826969710        0.53803888728459        0.07389079135079
C            2.57514470747464        1.61937821697004        0.16225414566948
C            3.96930437956696        1.59780973254827        0.16112458805298
N            5.11859985297388        1.59660841081003        0.16694210336839
C            1.74383412809763        2.76091983412455        0.24956646912161
N            0.45122425379185        2.47032767741323        0.21476001810926
C            0.36585862685357        1.12495645602446        0.12261943637488
C           -0.80484055289023        0.35858004458375        0.05144398351991
C           -1.98252270898310        1.12889088765707       -0.01388044608637
H           -4.89233371980020       -0.63635268466160       -0.25166818476070
H           -3.75730015890217       -2.58827701363188        0.26374418354766
H           -0.53536414913316       -3.46988472821680        0.97766974496054
H           -2.24334918012878       -3.79468855742908        1.07647947439142
H            1.76958383406084       -3.24424705910974       -0.61464637139775
H            0.16467139994233       -3.41629344473098       -1.05109549797496
H            2.07371272670795        3.78039702551805        0.33478222973928
H           -1.77458146334819        2.19379670623322        0.00750471202067
