29
 energy: -55.215373813287 gnorm: 0.000945995979 xtb: 6.6.1 (8d0f1dd)
N            5.05143976007676        1.07010029725080        0.05113484675322
C            3.93416704799762        0.78659399413034        0.02772707600772
C            2.57716961753997        0.44410959939481        0.00396292504283
C            2.25989013441300       -0.93865388834320       -0.09227233874184
N            3.27430483467165       -1.81252272877311       -0.23949421913288
N            1.08034047186985       -1.53113659582217       -0.03286508106579
C           -0.13565773489778       -1.00763060593936        0.02829018079984
C           -1.17939387261145       -1.97407259322122        0.10432231567784
C           -0.79130255216227       -3.32959200924457        0.18079293752755
N           -0.50184495319652       -4.43802673808675        0.24458751635222
C           -2.53517205170231       -1.65874605376357        0.08381264986026
C           -2.88445809760374       -0.32574232122389       -0.01294262679772
C           -4.10049416925896        0.40355690121464       -0.06532310305588
N           -3.90802819739351        1.71343306380692       -0.13687004387644
C           -2.56726771282145        1.91112654518831       -0.13012238195864
N           -1.97780367109336        3.09931321290068       -0.18495611327426
C           -1.85967968701117        0.67100524356176       -0.05666573414426
C           -0.49562261288578        0.41039702361010       -0.01360027753289
N            0.31880341446657        1.47839701032914        0.01838950796947
C            1.63657933688065        1.51051801610195        0.07229730599986
N            2.14436610617475        2.76202941635133        0.17000137548787
H            3.04117941553099       -2.79048102113470       -0.26155792380880
H            4.23360191923178       -1.51304648227060       -0.25815508810880
H           -3.27412130961025       -2.44495612721075        0.13374733149056
H           -5.09808296696267        0.00335382329665       -0.04958760677671
H           -0.96468066619156        3.07310166851407       -0.16483577058744
H           -2.51782186892613        3.94475272152507       -0.24308048806918
H            3.13490403146710        2.91026934890959        0.25259459799394
H            1.51570129460854        3.53822966214749        0.26759799556858
