28
 energy: -46.688330456954 gnorm: 0.000445103579 xtb: 6.6.1 (8d0f1dd)
N           -5.19532365016625       -1.04601345181566        0.14821695214087
C           -4.19619049063399       -0.47301070232920        0.13838928696833
C           -2.98458352876495        0.20994300834242        0.11939840867890
C           -2.80413949984735        1.61018513793926        0.20538886263663
C           -1.46162231889761        1.91044132416097        0.13112304467772
C           -0.73650556726320        0.69949042199851        0.00957998376658
C           -1.70895371018055       -0.37297218640189        0.02056725189242
C           -1.28050312526096       -1.69244382443170       -0.05229675150018
C            0.06283755126501       -1.96350051439589       -0.12232116551748
C            1.05350597752031       -0.95068384997285       -0.10870278250152
C            2.43056951361857       -1.36030927021621       -0.13167321149763
N            2.72698379169237       -2.58792116547066       -0.61449002407394
C            3.48606209276501       -0.66464933567135        0.47934058537763
C            3.49436919489145        0.66506223248028        0.83970412395666
N            2.72671228466446        1.61502849254677        0.35266666873040
C            1.57682535068190        1.49620603514578       -0.25760265750146
N            1.21346736523971        2.51839755256036       -1.04770745709750
C            0.62688896733078        0.41050802591637       -0.07709453499481
H           -3.60462858010324        2.32115905603066        0.31088890849188
H           -1.04873974069217        2.89924779740986        0.22619317106410
H           -2.00041412655166       -2.49810881872953       -0.03173160401720
H            0.36859439623835       -2.99906059028131       -0.10475710563474
H            3.66702731946633       -2.93632490303913       -0.55444104306037
H            2.03177960792405       -3.14936040749794       -1.07090926644816
H            4.37902307964716       -1.24040759259959        0.68829324260374
H            4.29939648225376        1.03112849734504        1.46661398513405
H            0.29237313671096        2.54157238534478       -1.44933417677913
H            1.82213617005274        3.31497348703175       -1.12433419799542
