25
 energy: -44.304589878307 gnorm: 0.000239121152 xtb: 6.6.1 (8d0f1dd)
N            5.47775212280482       -1.52914658184653        0.00036326940662
C            4.49450230963368       -0.94123535928291        0.00045044552724
C            3.27565983718992       -0.21018195834414        0.00026968569954
C            3.40487824741530        1.17822132717419        0.00089983377512
C            2.38211861932169        2.11843347572705        0.00103659326265
C            1.01848758275053        1.91870895920169        0.00057556003863
C            0.24429970147197        0.74007516870003       -0.00015407522851
C            0.76943416833858       -0.62313633195276       -0.00059563620116
C           -0.16399859500908       -1.69139167562820       -0.00130177930142
N           -1.46820153185617       -1.57722908713183       -0.00161181747669
C           -1.97081746544472       -0.35626092734370       -0.00120739042203
C           -3.32388818489044        0.04938519234717       -0.00146387438575
C           -4.44450990249574       -0.78306455042813       -0.00237046957913
N           -5.38110073444837       -1.44878206598620       -0.00227818901599
C           -3.33800579061381        1.45895653232089       -0.00081669017540
C           -2.03993770814514        1.94308522372554       -0.00025672013583
C           -1.14956783445365        0.85058695539250       -0.00047700870950
C            2.11594981101616       -0.98696264052333       -0.00037537465381
H            4.41854745960888        1.55940487149893        0.00136234356650
H            2.70443292279831        3.15223520997698        0.00156730320506
H            0.42538190364258        2.82421585205672        0.00079707511457
H            0.20773232767601       -2.70792407024638       -0.00161690513766
H           -4.23117140803814        2.05717957760832       -0.00084696576072
H           -1.77962647360260        2.98580866639663        0.00024235504896
H            2.29462622822943       -2.05774225101252       -0.00076128146132
