31
 energy: -54.635875331440 gnorm: 0.000953197909 xtb: 6.6.1 (8d0f1dd)
N            5.64814162347044        1.06126537765598       -0.70499274571784
C            4.62182144170538        0.58355121052579       -0.50273226548882
C            3.35697483045786        0.01355737599477       -0.24861582521225
C            3.25475259710556       -1.35469758533087       -0.48537116151801
C            2.23556471074889       -2.19869804350476       -0.11289258083676
C            0.94945096826223       -1.87266693860168        0.33013692413008
N            0.21970426080315       -2.87316817943244        0.85876575895947
C            0.29082876325779       -0.60440006045440        0.15617624059790
C            0.96222180403137        0.66994836146431        0.21869822428748
C            0.15391402379400        1.83306465377765        0.19137665843967
N           -1.15234800215459        1.86844025550657        0.12747431961943
C           -1.79264029174040        0.71573437410735        0.05239820797184
C           -3.17132007336226        0.48119717296330       -0.06004411163886
C           -4.20791092018894        1.40828158816533       -0.06208316991407
N           -5.11201654421034        2.12128105052259       -0.07816624955307
C           -3.34286187880730       -0.91783958441272       -0.24075271454083
N           -4.55375453936910       -1.53405001279063       -0.36368701969742
C           -2.09823020651380       -1.55055376315124       -0.18395676883614
C           -1.10592818109014       -0.57696815020521        0.01468393104632
C            2.37062615952728        0.88079265584397        0.29444089066176
N            2.82774398288247        2.03411922034671        0.82268882360516
H            4.14208298690434       -1.81922575340654       -0.89792409494721
H            2.44786327722872       -3.25949028462565       -0.16916669782876
H           -0.68829843666510       -2.67516514787451        1.24465584089799
H            0.63322764332424       -3.77731744939028        1.00411508424555
H            0.61419141918990        2.81167652059565        0.14157593645240
H           -4.57270276854178       -2.45565247478373       -0.76722931367334
H           -5.34109318475082       -0.94125620398465       -0.57267816767990
H           -1.96246664396092       -2.60068049433122       -0.37336207971271
H            3.80303023632156        2.27023293430219        0.73449869291118
H            2.19408176434079        2.72296219680821        1.18690639716997
