32
 energy: -59.162457251725 gnorm: 0.000479476863 xtb: 6.6.1 (8d0f1dd)
N           -5.47851889649301       -0.54103844569013        0.67761351861513
C           -4.39223204561791       -0.22348095487174        0.47002331178601
C           -3.07795689170314        0.16702695824776        0.21756020445018
C           -2.67203652686410        1.45577239531009       -0.18333401593292
N           -3.47939731389973        2.50399156217068       -0.40970662052083
C           -1.25417792435800        1.44094924573192       -0.28161581340611
C           -0.33289667118767        2.41082136080724       -0.60831791528147
N            0.96092421743970        2.19826046903921       -0.47908311387628
C            1.43602637453870        0.99968730096308       -0.13250165209459
C            2.81189881864129        1.02173990675091        0.21351602708030
C            3.40043312392845        2.30832936584895        0.23256545918956
N            3.94314750006987        3.31920099007875        0.26928334962024
C            3.64943363566684       -0.01379216039143        0.63003587270842
C            3.44542525226640       -1.36978672630244        0.59603364245859
C            2.33238565072503       -2.06540918277026        0.08386273292587
N            2.48076268136058       -3.41095403473784       -0.04761823271962
C            1.07700986869536       -1.51412155112731       -0.23582450325310
C            0.18562536810826       -2.39979791974315       -0.85530339627405
N           -0.51078294739130       -3.14812963638715       -1.39115248354136
C            0.58535725612254       -0.17458192561640       -0.06829379725491
C           -0.78229909818369        0.09997484236759        0.00945415013692
C           -1.94225336869125       -0.67341532648708        0.34269487087515
N           -2.02602059912954       -1.90802715710965        0.86938876598260
H           -4.47221622106185        2.41032906964100       -0.28447095758425
H           -3.09694315311880        3.39408595663541       -0.67145569913002
H           -0.61070218486680        3.40325323372830       -0.93999916975429
H            4.62149088064750        0.30895479989802        0.98520723660117
H            4.26860404583810       -1.99430207578415        0.91824008431058
H            3.39665669279115       -3.81369906741059        0.04417979134746
H            1.77845900647085       -3.94879993025929       -0.52769225627067
H           -2.94835235267329       -2.29558133645587        0.99097092729984
H           -1.26329663006952       -2.55815228677391        0.79917754530645
