30
 energy: -54.959693983232 gnorm: 0.000767988690 xtb: 6.6.1 (8d0f1dd)
N            4.09307099762649        2.90351897778272       -0.40791543445401
C            3.17362468799462        2.22738022697088       -0.28624594407068
C            2.03214492427015        1.41571501841884       -0.12167977295971
C            0.79448585105396        2.00813522248133        0.06570393130751
C           -0.37482667777569        1.24427835862984        0.22202028025156
C           -1.63725630546178        1.93820515615212        0.38697377973515
N           -1.64236944583037        3.12992940436076        1.00474179269287
N           -2.78403879946863        1.56700137827352       -0.13557588693996
C           -3.08592858917708        0.33682793682505       -0.53398163585006
N           -4.05227955565055        0.21168553662272       -1.45538409750342
N           -2.66151038314115       -0.77534710262310        0.05164854821466
C           -1.48222794593027       -0.95734381509096        0.58529216789049
N           -1.35765513203162       -1.93558334768609        1.48519580579850
C           -0.29472462281077       -0.17460839838885        0.24126422112085
C            0.94076270780560       -0.78636212655404        0.02861409316553
C            1.35346321812852       -2.14008273036467       -0.10568329697355
C            0.55944604676095       -3.27921761370057       -0.09080457700459
N           -0.10190469680631       -4.22470230641257       -0.06307394664408
C            2.74093426601386       -2.14108659001657       -0.34895512465004
C            3.21807503890865       -0.84046337833402       -0.36725548409541
C            2.13718075144513        0.01735932969076       -0.16016202124817
H            0.72846963702000        3.08625621453427        0.03056356486653
H           -0.80284169539143        3.52403066937257        1.38793490768055
H           -2.50240679332900        3.64928319281883        1.03993052534649
H           -4.51046289311359        1.03307555634277       -1.80565786079805
H           -4.40766852119644       -0.70248334289249       -1.66986447694426
H           -0.44139932356731       -2.25945020015245        1.74955830293244
H           -2.12827902991284       -2.57489910510626        1.60009442848089
H            3.32516687658440       -3.03147436376008       -0.50001756802682
H            4.23522340518223       -0.53731307919417       -0.53098400632094
