23
 energy: -39.257215130875 gnorm: 0.000546269370 xtb: 6.6.1 (8d0f1dd)
N            4.21241570759621       -0.76283849273823       -0.00986336104782
C            2.97782191509643       -0.20625580182797       -0.00425019613217
C            2.89528630440226        1.19335978458165       -0.00147410166821
C            1.74696302144043        1.97253969404594        0.00531038297637
N            0.47341418020685        1.67850162622215        0.00476830092238
C           -0.11558830858682        0.48274854621663        0.00129940237480
C            0.51669370983311       -0.84811666628667        0.00278142437827
C            1.88604192402697       -1.08766806216506        0.00000253735812
N           -0.20717762104109       -1.98919687865425        0.00482883047754
C           -1.52063815995996       -1.96551413391031        0.00244472715903
C           -2.24361313932695       -0.78164534186168       -0.00302662850349
C           -3.59567540462499       -0.40678183784101       -0.00605323336093
N           -3.73239942256289        0.92491522806399       -0.00736378372294
C           -2.51107391253623        1.46066236639102       -0.00588448868949
C           -1.51279802006373        0.46661002298709       -0.00310828607611
H            5.03419869999087       -0.18628843309333       -0.01522131686285
H            4.32229622739047       -1.76070170779675       -0.01261111208953
H            3.83692272707081        1.72793003384319       -0.00377950273387
H            1.91419018283054        3.04822481847348        0.01019014694527
H            2.13054505916002       -2.14378487297328       -0.00071637321742
H           -2.00518729719437       -2.93513246151691        0.00451297639587
H           -4.45900554530659       -1.04677919029709       -0.00678805212698
H           -2.37210934904135        2.52496510853739       -0.00638796285582
