24
 energy: -44.583287454351 gnorm: 0.000459514246 xtb: 6.6.1 (8d0f1dd)
N           -4.18624347723098       -2.17042824108746       -0.00096058832465
C           -3.15141513892775       -1.67954141150703       -0.00070604950108
C           -1.85427211106736       -1.11593799136430       -0.00047537112086
C           -0.73667228330908       -1.94557449747218       -0.00048078305185
C            0.57774768816177       -1.46341625294644       -0.00017740401721
C            1.59341546427761       -2.45032410915193        0.00013955050130
N            2.89809808081091       -2.41284382009713       -0.00041104648619
C            3.67539415598018       -1.34366701243448       -0.00059378489051
C            3.34715734419622        0.00681337887052        0.00053542453767
C            2.08494931350377        0.57757254227876        0.00085016223643
C            0.81765419017916       -0.02124454695333        0.00019900956587
C           -0.31728189081443        0.80577889042171        0.00023390135957
C           -0.51815067311580        2.20689486327796        0.00045622179163
C            0.42022871525243        3.23653083216279        0.00042069597715
N            1.19020556742017        4.09179054834704        0.00156659012969
C           -1.92127764441317        2.38481292072768        0.00037363029459
N           -2.58854512600714        1.24090784249297        0.00003474043098
C           -1.66545069832440        0.26625275435942       -0.00011505858580
H           -0.89463413588570       -3.01452507118777       -0.00069818639991
H            1.22127363491480       -3.47351962915417        0.00072555685020
H            4.73133336181401       -1.59693329147057       -0.00151893930490
H            4.18005458811576        0.69764326158595        0.00092457168515
H            2.06952721942166        1.66079673152420        0.00142303301068
H           -2.44167484245260        3.32507042227780        0.00048093151204
