27
 energy: -42.955342219660 gnorm: 0.000677868524 xtb: 6.6.1 (8d0f1dd)
N           -3.00505617539366        3.10230117173527       -0.06294614026285
C           -2.10700009226992        2.38424675019374       -0.06150038274476
C           -0.96835002417554        1.55566781767049       -0.06264807312923
C            0.27321610134692        2.20019062032363       -0.13489402886927
C            1.41812475572537        1.44981308844252       -0.07739382015496
C            2.78306763824813        1.80504636305236       -0.07422722672757
C            3.52588384200630        0.65068562629838        0.05433506828482
C            2.66507551744027       -0.46569627373051        0.11978031248529
N            3.10394217287210       -1.75991533295793        0.28011242419952
C            1.33165028100568       -0.00198955084786        0.00302619873544
C            0.10076115777981       -0.66619461595689       -0.07642603624266
C            0.10365713403923       -2.05829731220103       -0.33136379774215
C           -0.90051813318972       -3.00006695108268       -0.30173559022314
C           -2.24206580149919       -2.84083637988522        0.02242123218417
C           -2.90140064236423       -1.64053653507950        0.24573217956763
C           -2.40791236847311       -0.35433604294433        0.17613803634520
C           -1.10184201083884        0.14569241386292        0.00182325263631
H            0.30779180519420        3.27834233137472       -0.20466969307542
H            3.16525085415707        2.80661368415865       -0.13976444124264
H            4.59844454911462        0.59036243812648        0.11274408849678
H            4.07630137537944       -1.83471668779002        0.54092490427347
H            2.49690256359536       -2.37588117927358        0.80099275326223
H            1.06977044823821       -2.43774109996788       -0.63480801320076
H           -0.59416251639266       -4.01210706503321       -0.54077685321710
H           -2.84095192109766       -3.74066641789611        0.06825661177570
H           -3.96056276188455       -1.71826545015230        0.45921649495029
H           -3.15443173225695        0.42152197926124        0.30674744013721
