29
 energy: -51.198243881407 gnorm: 0.000835543151 xtb: 6.6.1 (8d0f1dd)
N           -4.96570638738014       -0.09968964723879        0.07746647376739
C           -3.90297992809280       -0.53498092706948        0.01428585345592
C           -2.62765934176255       -1.09304291689972       -0.07192187865010
C           -2.33181675935112       -2.45354670904626       -0.23089312915271
C           -0.95116517633481       -2.63226114709309       -0.27218194632329
C           -0.33182137645772       -1.38322215764127       -0.15089890590063
C           -1.39277594211911       -0.40235825123291       -0.01490507796294
C           -1.08363220337625        0.93689827794084        0.17491167518572
C           -2.08565117932091        1.90695626096468        0.38648252097007
N           -2.83534536456999        2.75304325271085        0.58713497765681
C            0.26472145739140        1.35851059557518        0.13651506399256
N            0.54127731835611        2.72555923064314        0.20773221503234
C            1.29572475215583        0.42485678283308       -0.03409731495005
C            2.63980039562098        0.88954331848520       -0.33214043493148
N            2.78022587377430        1.95439128782860       -1.13893047416142
N            3.75143628772126        0.41344668684368        0.17377502744719
C            4.04142626402286       -0.78585691840321        0.60348374485108
C            3.32396726000900       -1.95156563240649        0.33859506540037
C            1.99868675769302       -2.00759807386911       -0.03813349487359
C            1.02193119032586       -0.98953469573270       -0.07695291776783
H           -3.06733074882343       -3.23301923703802       -0.31620094957098
H           -0.46857659678122       -3.58463278746193       -0.39094348289938
H           -0.26100619876986        3.27911670873142        0.47978275882803
H            1.37006609519801        2.97026965733233        0.73123116520348
H            1.97335838705026        2.46886579830849       -1.45144218329067
H            3.70715909522551        2.29455416398592       -1.33201941153857
H            4.99155299563795       -0.85438922068900        1.12099819163049
H            3.84072721762727       -2.88969309863584        0.48743653067863
H            1.60210781223008       -3.00252790722569       -0.18889525382641
