24
 energy: -42.990354577053 gnorm: 0.000873782900 xtb: 6.6.1 (8d0f1dd)
N            4.46579836519656       -0.91948732373314       -0.13556806653131
C            3.25208030118298       -0.33467714045894        0.00221296489889
C            2.99180486154148        1.03132709866007        0.20718504286961
C            1.60851477454488        1.13699350860335        0.22520574243578
N            0.79553911331832        2.17393643924483        0.40525335730964
C           -0.49631437107144        1.94565866497072        0.30686416988837
C           -1.10975486246693        0.69988389214874        0.09946082033610
C           -2.51657121334044        0.61245046509432       -0.13123926495021
N           -3.17399285185706        1.66505252336601       -0.64390994088291
N           -3.30185597342499       -0.39899398605562        0.24413710985603
C           -2.93408028621748       -1.62658883291795        0.46154530351255
N           -1.89774071549199       -2.28677959140930       -0.02521731978292
C           -0.74177089565881       -1.76692635731674       -0.32770338836261
C           -0.25937914058519       -0.47450421928573       -0.02782298869978
C            1.11419025642392       -0.23192429709675        0.00041832763832
N            2.12868653210896       -1.08877293848585       -0.11348079434680
H            5.28106713357857       -0.41885107454012        0.17107921578691
H            4.48906335866001       -1.92433998288237       -0.10428922355057
H            3.71603933987824        1.81160102466563        0.32153680919590
H           -1.11610833191146        2.82223753478903        0.46345556441345
H           -4.17640533922600        1.61638985711843       -0.71434608284989
H           -2.69360500174489        2.51523377757574       -0.87850516376218
H           -3.65246675112330       -2.23759004747949        1.00103729599665
H           -0.02351641591384       -2.45299636097506       -0.76490889931921
