23
 energy: -39.269507169507 gnorm: 0.000736034751 xtb: 6.6.1 (8d0f1dd)
N           -1.65409689653074        2.44919030250056       -0.00651455302946
C           -2.01208864616592        1.17000062965889       -0.00417672246010
C           -3.30657046221167        0.58300965684304       -0.00352348335142
C           -3.17635817722656       -0.78433097742649       -0.00089804080941
C           -1.79064759514873       -1.12623095248884        0.00022640532685
C           -1.10011233385166       -2.31359721770449        0.00253072816037
C            0.29633847388009       -2.27457423658139        0.00293159934156
C            1.03264710105518       -1.09816155489850        0.00111579664517
N            2.38398111372579       -1.26878584757921        0.00245050491063
C            3.28351078417502       -0.33928337916583        0.00116630755069
N            3.24361339334408        1.00009494885073       -0.00244736855086
C            2.14386366235633        1.71734987350250       -0.00479978477464
N            0.86048208556972        1.43190348464769       -0.00416439561768
C            0.32598133565398        0.18527794878829       -0.00156176461893
C           -1.05740620091388        0.10757196133148       -0.00180368003537
H           -0.64330547917529        2.59891547264704       -0.00664120724608
H           -2.32588467556177        3.19712609690190       -0.00834926670819
H           -4.22907071009912        1.13441546625795       -0.00491125428523
H           -3.98268012548185       -1.49513786585783        0.00012113996518
H           -1.61281820840106       -3.26446734428261        0.00407116174556
H            0.86071995637707       -3.19433981839079        0.00483706347296
H            4.30468327694577       -0.71948241719332        0.00318091930364
H            2.33581508648522        2.79200007703927       -0.00767303063529
