25
 energy: -42.707986858821 gnorm: 0.000413733740 xtb: 6.6.1 (8d0f1dd)
N           -3.96606497896966        1.07937323378225        0.05009864943702
C           -2.84195137900806        0.34425854031566       -0.05369371997219
N           -2.89540265442599       -0.98408675276644       -0.24761665932015
C           -1.63089579328588       -1.43917749517258       -0.25555425722308
N           -1.37695114632433       -2.76027365968238       -0.40835359585659
C           -0.68717204230675       -0.38775966845201       -0.07764313696489
C           -1.50130733206124        0.80657135353824        0.04796486285349
C           -0.87016882122559        1.99684985491478        0.33633675191310
N            0.44339477107446        2.12179120684742        0.26815418314410
C            1.21507262509115        1.06837366387286       -0.00596853798077
N            2.42519092726831        1.36382937125425       -0.44515754789101
C            3.52184060554601        0.66277028844589       -0.51930342727078
C            3.82428577033663       -0.55293387711540        0.08424772412158
C            2.87364942392090       -1.47668177692903        0.52262555475688
C            1.50390571404577       -1.40863571027338        0.40879294232929
C            0.69213315305519       -0.30442576498011        0.05524093965114
H           -4.83834663905528        0.63081754799664       -0.16881765541295
H           -3.90838528575738        2.08054026238415        0.00338328112081
H           -2.16506895813003       -3.32336421740117       -0.68525290619055
H           -0.47277523677049       -3.03231634649190       -0.75684549418412
H           -1.41138015874781        2.89912123756241        0.59659061534049
H            4.31180396584444        1.16124375980710       -1.07580889738105
H            4.86444425333420       -0.84312538550307        0.13469131638928
H            3.26716459784395       -2.40600991706047        0.91912110878482
H            0.95267966550743       -2.28397421409369        0.73261031190617
