33
 energy: -62.903525220800 gnorm: 0.000825577123 xtb: 6.6.1 (8d0f1dd)
N            5.64740359645739       -1.14113121045294       -1.17179653583648
C            4.58435460344914       -0.82866876166988       -0.86399089218911
C            3.31582516861822       -0.37254254519131       -0.49922284466067
C            2.14233930660234       -1.11114133200765       -0.41351225732281
C            1.08779253519604       -0.23565552912923       -0.06761253258391
C            1.66137051946511        1.08254617015779        0.07764002832427
C            0.82049632245707        2.12051553670400        0.50576994068083
N            1.27186623377568        3.34363059401909        0.87759071638671
N           -0.49524959790914        1.96323395969489        0.48839625391138
C           -1.06755269931450        0.79825299486420        0.19173333629226
C           -2.44270035095613        0.90403359886087       -0.08261967929103
C           -2.95638966240023        2.21597286419997       -0.10570098318059
N           -3.44336327554988        3.25726479602522       -0.13837014490625
C           -3.35726428648095       -0.12984867944513       -0.43478812590286
N           -4.50832077713861        0.23101536592670       -1.03794750124314
N           -3.25805810126320       -1.41680017057129       -0.17817599072560
C           -2.22001196755197       -2.09664790366867        0.28238462623936
N           -2.54848134268983       -3.33135635565232        0.71765506581372
C           -0.84367714347045       -1.72783098799209        0.27826779794941
C            0.02041254617911       -2.79833572218374        0.57074409264072
N            0.63326821528293       -3.72837581756220        0.86388477265330
C           -0.28827128977735       -0.44000813520081        0.10551469726886
C            3.03250938336559        0.99716044899645       -0.19690165946469
N            3.95878416715630        1.99533096790181       -0.17031850219620
H            2.06593237536163       -2.15980757866799       -0.62393426889859
H            0.57202054077943        3.96130122320639        1.25814543336931
H            2.21052427488878        3.43107552901620        1.22727756144662
H           -4.73507235910054        1.20191471100625       -1.16835826398255
H           -5.20302410938601       -0.47620424603147       -1.20114940502962
H           -1.84390232838541       -3.99212440895674        0.99634713622913
H           -3.50644284120941       -3.62106245365531        0.62977801468143
H            4.86518156034965        1.76527082363221       -0.55002901061277
H            3.64076116519796        2.93427783202538       -0.35053891956052
