29
 energy: -51.209505349433 gnorm: 0.000364734953 xtb: 6.6.1 (8d0f1dd)
N           -4.17827202312493        2.84741365787870        0.01709565666666
C           -3.54594949024384        1.88737708534894        0.01123918544190
C           -2.79855213507890        0.69179113982205        0.00414997391320
C           -1.41753585371745        0.82865285211033        0.00744913758826
C           -0.39451588698621       -0.12171999396751        0.00337718454886
C           -0.61041972217548       -1.56558382223098       -0.00371647154845
C            0.50318115982423       -2.42528212036106       -0.00652660491542
C            1.80581388762734       -1.97443042429212       -0.00360125666356
C            2.04759206713101       -0.61013421459067        0.00346148854188
C            3.23933080788807        0.13114649265507        0.01158552419099
C            4.54059910604147       -0.35791265752006        0.02540482567323
N            5.63079345124344       -0.72885992532407        0.04665452068192
C            2.88393069429988        1.51136570444407        0.02127732060952
N            3.77271052216332        2.53209787382034       -0.01451450233631
C            1.48812580160713        1.62053807020963        0.01898058397923
C            0.93789466769965        0.33631790439677        0.00769810942629
C           -1.86669825951941       -2.19189264894548       -0.00668870649247
N           -3.10734709762549       -1.77004921445378       -0.00900448594794
C           -3.55506279715590       -0.52140276657000       -0.00633913750981
N           -4.89809919667655       -0.43261355866505       -0.01345846011555
H           -1.07959765161331        1.85792710007901        0.01359580351741
H            0.31828815418877       -3.48986147433682       -0.01164221269146
H            2.63020125453058       -2.67262239999427       -0.00630439178859
H            4.74697567858909        2.32913323446041        0.12992026743904
H            3.45449203024584        3.46905024463340        0.15844977328220
H            0.96327847628864        2.55787614372332        0.02464088985748
H           -1.82812978553831       -3.27996717336174       -0.00860966272327
H           -5.36759872863897        0.45682404875900       -0.01199137356325
H           -5.42462976947325       -1.28908423412817       -0.02069250866203
