30
 energy: -54.942193006515 gnorm: 0.000655163705 xtb: 6.6.1 (8d0f1dd)
N            4.08091488254415        2.87933746380356        0.46193487549757
C            3.18480542304433        2.17744541225947        0.32173147704805
C            2.04213180934161        1.37173572751231        0.13071101667636
C            0.80951193876229        1.98022845525567       -0.06097008559436
C           -0.37902947096968        1.25376490775156       -0.23953219289872
C           -1.60809162977176        2.01921359691847       -0.39620914053459
N           -1.49675260357305        3.25589314866519       -0.92924038711215
C           -2.83645043562697        1.64053502601315        0.10607374548237
C           -3.18387814896168        0.34479685932651        0.54227813500903
N           -4.24023558379334        0.17741452063552        1.36073163802345
N           -2.67070510027928       -0.76151916597806        0.03920895074207
C           -1.51680629516673       -0.95027106665708       -0.54137388461847
N           -1.42602978166279       -1.96517713635873       -1.40519760574861
C           -0.32477569579389       -0.16275867304737       -0.25791407834673
C            0.90407936914578       -0.79547307641269       -0.04745585068785
C            1.33982728204922       -2.14241447302523        0.08419632549259
C            0.59871880114409       -3.31480952716288        0.05239579955044
N           -0.02125347862553       -4.28685202944071        0.00904949953248
C            2.72431142708345       -2.05939674419087        0.32726808446337
N            3.18077247539317       -0.81311603916114        0.35277374878948
C            2.11552063486617       -0.02409339028073        0.14936686713740
H            0.77496438117988        3.05831678501097        0.00158799054095
H           -0.63154096590336        3.57067386283432       -1.32819108988853
H           -2.30299742547135        3.85071383024857       -0.99470837287401
H           -3.60504864303095        2.40008608658703        0.16874760974107
H           -4.70369776634053        0.96342129282123        1.77728161672732
H           -4.49726476428691       -0.75512803792777        1.63115242700608
H           -2.19726340782888       -2.61060023571620       -1.46688827969601
H           -0.52202367332189       -2.29632399049507       -1.70050748828730
H            3.38943099285462       -2.88976250548915        0.48424723282706
