33
 energy: -58.875263109063 gnorm: 0.000951663358 xtb: 6.6.1 (8d0f1dd)
N            5.23920080020073       -1.94732188154360       -0.64846968725178
C            4.36020063897139       -1.26534245900942       -0.36185631069311
C            3.27262614236759       -0.43102921343292       -0.02633350926046
C            3.59513928358051        0.74454968580793        0.67519751397343
C            2.80351707849676        1.82639550356553        0.90050592074237
C            1.48178766528350        2.10957643203596        0.46274766013626
N            1.12606305406735        3.40206913716174        0.64496722157440
C            0.52385711867649        1.17870087209039       -0.01631691656218
C           -0.80121934615176        1.62869667757804       -0.35538950286711
N           -1.02102686405572        2.95893955462555       -0.74264890996747
C           -1.89831123541568        0.78087270537371       -0.25310437966356
C           -3.17695375620247        1.26744532008905       -0.59341295576850
N           -4.18014396766431        1.72657393520666       -0.91189811531501
C           -1.71621268768317       -0.55149871664820        0.15936489204944
C           -2.59948564202465       -1.59364314084487        0.42810077889227
C           -3.99132138817508       -1.52761961785988        0.49170923566429
N           -5.13936062682230       -1.49957136048745        0.55517524721355
C           -1.81648304603473       -2.76233995000924        0.66042562636645
C           -0.48887917537454       -2.46952570363059        0.48954607419239
C           -0.36695703525816       -1.08115458135108        0.18985674925535
C            0.73356248305835       -0.25420969789860       -0.00625837043341
C            1.99345919714338       -0.88377490978820       -0.35500655309295
N            1.89514396692869       -2.02373683828751       -1.06412561928421
H            4.61737634700516        0.80394468169476        1.02774046911059
H            3.27210061679466        2.64425897428611        1.43470499479939
H            0.15671758133761        3.66859524703487        0.53018587892078
H            1.73656897907462        3.99777438830779        1.17683715706197
H           -0.37895434735871        3.29722576438220       -1.44745561204094
H           -1.98564754875282        3.12741760362125       -1.00370296996562
H           -2.22690305062943       -3.71859756432409        0.92976632909795
H            0.32240394418899       -3.15390231673245        0.66085185476547
H            2.72601864697341       -2.52922426912777       -1.32473134578852
H            0.98924443925542       -2.39328230578579       -1.29993968326279
