23
 energy: -39.293311005213 gnorm: 0.000735751402 xtb: 6.6.1 (8d0f1dd)
N           -0.47421312772709        2.47145470283992       -0.00146098029768
C           -1.09192029362498        1.30127195467515       -0.00160336456710
N           -2.43129955195961        1.41137240683428       -0.00182089147920
C           -3.32314985165657        0.46646508745213       -0.00135584113489
C           -3.19342449609404       -0.92921272031135       -0.00025512221331
C           -2.03110205672432       -1.65998288804086       -0.00025423938231
C           -0.68508846020895       -1.24239463930007       -0.00123059064300
C            0.27952272913548       -2.28228904204447       -0.00149144631812
C            1.63410141936531       -2.07368691414854       -0.00234557334505
C            2.08970916904647       -0.75722837238713       -0.00285962793600
N            3.32721652002149       -0.23782927857084       -0.00354487364132
C            3.12146987370482        1.07908931260037       -0.00360319534158
N            1.85256317661147        1.48559980039021       -0.00295073852239
C            1.13630209195080        0.32805100521262       -0.00249895189799
C           -0.24519085632348        0.12714596816447       -0.00180502482196
H            0.57320100460977        2.46438334071423       -0.00191543790095
H           -1.04141014750696        3.30363506100279       -0.00155598577443
H           -4.33953885172109        0.85380308682401       -0.00182385096104
H           -4.12151375995408       -1.48531475627114        0.00043337950756
H           -2.16253647404310       -2.73653664376082        0.00044196304530
H           -0.08982094499960       -3.29806772189608       -0.00102328358798
H            2.33201403171427       -2.89636134369210       -0.00255560046854
H            3.93613193048401        1.78034517641322       -0.00406146071804
