23
 energy: -44.839987462576 gnorm: 0.000914933146 xtb: 6.6.1 (8d0f1dd)
N            4.06206636337577        1.88841368394413       -0.14907210399452
C            3.22061088596444        1.11186363855635       -0.10055697478930
C            2.23769643766175        0.09081053690648       -0.06452395637905
C            2.67503910159089       -1.19673079783831       -0.40300383884265
N            2.10080578967207       -2.33821771864252       -0.13994499003959
C            0.87369253743420       -2.56598558420321        0.25843846427125
C           -0.25023671891872       -1.73805575781929        0.16863099481326
C           -1.47233768752945       -2.42949793729519        0.34450377269735
N           -2.41629009119779       -3.05467358848504        0.52736475259352
C           -0.27707335034977       -0.32375440534040        0.02991903328190
C            0.91260527959256        0.52155355250827        0.19642886612188
N            0.82585684265601        1.81906071245373        0.48216400867694
C           -0.32457798100574        2.46053560195566        0.46252230438249
C           -1.48372370414697        1.83192903192218        0.04415013661521
C           -2.81724865308154        2.21101940200424       -0.19018016402557
N           -3.57112711959531        1.15583879357026       -0.51001350443055
C           -2.80311776987906        0.07005675528305       -0.47362994440530
C           -1.46191556370422        0.39192595202951       -0.14654045661890
H            3.66275821385819       -1.28669732049792       -0.84479647421117
H            0.70629869016117       -3.58655801122587        0.59030071662898
H           -0.29162026668459        3.49943038793136        0.76241631624027
H           -3.23902558597239        3.19750244512298       -0.14547714736686
H           -3.21983397530125       -0.89085713714047       -0.70695041521937
