32
 energy: -53.568069954009 gnorm: 0.000615910051 xtb: 6.6.1 (8d0f1dd)
N            5.43126076379215        1.46165587174681       -0.39260298008328
C            4.42257685065171        0.92332861272083       -0.25243316157555
C            3.17809665358117        0.31400264327002       -0.10955946268891
C            2.92873417248284       -1.05826449355852        0.06623718529926
C            1.55015580019421       -1.23341013332371        0.10746776043161
C            0.72404942649218       -2.36568384893745        0.21883165611349
N            1.23219920299417       -3.60514879584119        0.41559117033831
N           -0.59583861609549       -2.27786860862294        0.13939215344500
C           -1.21956013039668       -1.09301088917252        0.04229671514973
C           -2.59794272236084       -1.22331264354098       -0.10771839022132
C           -3.63006001226699       -0.28623522901752       -0.19654151826738
N           -4.89115656024040       -0.79537488409457       -0.38017224025510
C           -3.53511559466777        1.09173824058150       -0.01779578360305
C           -2.39842662586945        1.85382930755356        0.24532600218878
N           -2.59462748551156        3.20416765520730        0.42355735350872
C           -1.06834931810355        1.42717551540908        0.24876922573113
C           -0.49027279588013        0.17326932317354        0.06812684963383
C            0.91250384340187        0.05722231781551       -0.00977648029928
C            1.94526305085476        1.00706290812260       -0.16848591372530
N            1.83477197688133        2.37427898436994       -0.35076109813002
H            3.68820031673157       -1.81560577272935        0.13978509976380
H            0.59956170422972       -4.38315925551704        0.35047875635564
H            2.21623571178043       -3.76266165590144        0.29846467863259
H           -2.90898127316126       -2.25938684095944       -0.17455888255843
H           -5.62992062651038       -0.16910246542465       -0.64820483650886
H           -4.97700414104258       -1.74872656930372       -0.68565275452267
H           -4.47043606648870        1.63877909221403       -0.05714689957828
H           -1.84123339284697        3.73667649308252        0.82436382336746
H           -3.52184840995109        3.52073508756120        0.64893466600795
H           -0.35760824373740        2.21781922593016        0.45301844135310
H            1.07223795584063        2.66580136651011       -0.94676048155871
H            2.71374513632193        2.80867832167711       -0.60197220944432
