31
 energy: -53.866417521998 gnorm: 0.000382829406 xtb: 6.6.1 (8d0f1dd)
N            3.32182576948643        3.41526132059389        0.61894300345288
C            2.57904319399469        2.56008350156810        0.43047023856957
C            1.63204112951847        1.54757523526530        0.18909071947588
C            0.28335975741853        1.87002406757142        0.07460835819036
C           -0.73683782446469        0.93000398388688       -0.12580359067412
C           -2.05919743691649        1.47295024314524       -0.35655180012111
N           -2.11196527235952        2.76425790040279       -0.79702428260453
C           -3.27199225427096        0.87759284961484       -0.09516009034127
C           -3.56262635756201       -0.44140436808135        0.28756268377327
N           -4.86675754847896       -0.70520450533805        0.59910995483633
C           -2.69390046598978       -1.51912993239532        0.22568285321276
C           -1.33962477443272       -1.57103853125626       -0.11545140944046
N           -0.81626993316627       -2.78371622510769       -0.32602035680304
C           -0.41157733008898       -0.46498454701534       -0.15546129605123
C            0.95752483883646       -0.77729449749588       -0.14614327166622
N            1.57501312192857       -1.98134957937852       -0.24483688154785
C            2.88450853201285       -1.69058960684844       -0.12636955642187
N            3.83665362419172       -2.65823734739182       -0.12514872377996
N            3.19007418359384       -0.39832063350229        0.04112571945575
C            1.99568330443055        0.21043288864033        0.03452018516176
H            0.02314800439347        2.90970229070608        0.21091618087168
H           -3.00749418082260        3.14114701204034       -1.05512034762021
H           -1.30565303643534        3.16761938066004       -1.23881370613879
H           -4.14002432201018        1.51818427272580       -0.20911294870711
H           -5.09892341852562       -1.59846157261802        0.99583130249054
H           -5.48107112671911        0.06050296962773        0.81137412940662
H           -3.14734354532892       -2.48585460789863        0.42036530531825
H            0.22130381228978       -2.83917451227823       -0.36854275883220
H           -1.38274325203973       -3.59986804991803       -0.16837955491497
H            4.77649290656308       -2.33198202502487       -0.27388313546715
H            3.58511980925380       -3.53840305410030       -0.54148528268353
