30
 energy: -54.928003547812 gnorm: 0.000317109398 xtb: 6.6.1 (8d0f1dd)
N            5.72919525455193       -1.78374848419291        0.01708554813274
C            4.67999456668893       -1.31464316095174       -0.03680851390260
C            3.40780090559149       -0.72046226673190       -0.10134730333720
C            2.35096120437049       -1.55415499190045       -0.50493901423066
N            1.06697734810491       -1.38168402552873       -0.47709924411003
C            0.35138239611944       -0.28363231480113       -0.23036150316226
C            0.84024557097000        1.10081161405738       -0.17142000077552
C            2.17207830833426        1.45159774462525        0.05606711276265
C            3.32010922015381        0.66821983931529        0.18797756617728
N            4.45806175064324        1.29498271371726        0.56531134752812
N            0.00460496397574        2.14045195177972       -0.25508030540911
C           -1.31298249614871        1.98463705203659       -0.22415252414271
N           -2.05216921389357        3.11608339480060       -0.37004634200949
C           -1.89182086421301        0.72661666325723        0.00628858941918
C           -3.20411484965248        0.26674283040537        0.16970009937731
N           -4.35158073111388        1.00389572411893        0.25887660874996
C           -3.15350701690065       -1.16531431526211        0.17831422766357
C           -4.28704059660215       -1.96567507612952        0.33775569208729
N           -5.25368494492268       -2.57160783527757        0.48359174445367
C           -1.83437301439859       -1.57858128232851        0.03654961879170
C           -1.02570159537912       -0.42788333629774       -0.05858420593069
H            2.64185558140728       -2.54771515241419       -0.83978628701400
H            2.31038360719108        2.51453600946141        0.21598556373673
H            5.32462549875216        0.78669977463286        0.61581197586955
H            4.46555954935272        2.28889116187986        0.70665486642330
H           -1.53821942352411        3.92716298437197       -0.67632082662291
H           -3.00007793881646        3.02560778625550       -0.69492646391949
H           -4.27998728356440        1.92007159726064        0.67288814691873
H           -5.17931756599683        0.48544856544169        0.51470802883326
H           -1.48399987117678       -2.59196767650641        0.01136846934329
