27
 energy: -47.758161488731 gnorm: 0.000564160998 xtb: 6.6.1 (8d0f1dd)
N           -6.04945386597945        1.35473309827944       -0.03456494329094
C           -4.97487641361633        0.95068003467026       -0.02256524682543
C           -3.65218903701771        0.45601561296013       -0.00889053459783
C           -3.50415474744602       -0.93410857805296       -0.00393593578504
C           -2.34735694857094       -1.67430961778780        0.00663794379709
C           -0.98577362575182       -1.29572397698294        0.01101906425356
N           -0.17524644144687       -2.36307221563359        0.01513367320452
C            1.13742916322926       -2.22859678884648        0.01722728805622
C            1.75325399467024       -0.99627542439219        0.01503927469254
C            3.10475021409560       -0.57580905378427        0.01159079311650
N            4.20395258906927       -1.35586975288406        0.04241801484315
C            3.09579453966660        0.84528757049530        0.00725416646553
C            4.25065309259869        1.63252698076549       -0.00652999732891
N            5.22174923498765        2.24734157132771       -0.02429097327975
C            1.77377545133216        1.30357366115992        0.00725026311308
C            0.91539526225355        0.19282188513634        0.01165846226190
C           -0.48048389265220        0.06558477205257        0.01035674757507
C           -1.27305150099028        1.24066053313349        0.00895619183882
C           -2.62831333700885        1.42148005365195       -0.00047092144804
H           -4.43086430960439       -1.49673163695617       -0.00901806024373
H           -2.46552494822514       -2.75059653913096        0.00977364441006
H            1.69413589460530       -3.15910676951187        0.02093508050226
H            4.11841135901168       -2.35071846786537       -0.06093030491911
H            5.11252341256304       -0.93536518569222       -0.05132838052281
H            1.50053288022063        2.34225121056021        0.00261846760002
H           -0.69256093278492        2.15431685471926        0.01457067587732
H           -2.97317935750862        2.44952217890872       -0.00211621656612
