29
 energy: -50.406045787706 gnorm: 0.000431482826 xtb: 6.6.1 (8d0f1dd)
N           -2.69025166870859       -2.79839410376641        0.09771070628641
C           -2.35753850949415       -1.69228789071004        0.10822155680765
C           -1.99014708039612       -0.35913974672679        0.09505939319254
C           -2.87952388990357        0.72783725139396        0.25098830396946
N           -4.22803336874055        0.65162475050249        0.33950253001899
N           -2.25506719840393        1.92499962508394        0.22993875392220
C           -0.95504960600299        1.66236991397364        0.10141547615618
C            0.09061053502792        2.56714088651093       -0.06058259803601
C            1.38570729160613        2.11449658996410       -0.19388243591756
N            2.41002208594805        3.04161858539776       -0.31347052494839
C            1.69720955695445        0.71160238660479       -0.07177308343915
C            3.02636401299303        0.36366346920219        0.16502951373352
C            3.57846326228126       -0.84742159817800        0.56856369791473
C            2.90751544202944       -2.05519085896074        0.66637772243261
N            1.78189060944403       -2.38584413859533        0.08280672317094
C            0.86131861095846       -1.62471649457252       -0.45266353165967
N            0.06597313212469       -2.21023169436139       -1.35883512633081
C            0.59686976430190       -0.23193086824004       -0.12264394119912
C           -0.69425002681329        0.23456709286960        0.00768516563960
H           -4.70922298878410        1.48626321723605        0.62650571174079
H           -4.64295444536050       -0.23630003096332        0.56477965667208
H           -0.12504011359178        3.62474617123993       -0.08933414003867
H            3.17660578640445        2.79968347310243       -0.92079387771370
H            2.08720270345732        3.98834511506355       -0.44127753891106
H            3.72093150100552        1.19326358103672        0.19362029198204
H            4.60847265684582       -0.82878825346858        0.89713965768265
H            3.38169189539963       -2.87506222118750        1.19506276900540
H           -0.79042812174639       -1.76457364811387       -1.64287224843837
H            0.13939903226402       -3.20742283413755       -1.47969462909545
