25
 energy: -43.507720251571 gnorm: 0.000831402421 xtb: 6.6.1 (8d0f1dd)
N           -1.20709439437605       -3.96881726667735       -0.03254603595892
C           -0.80915576541730       -2.89070339757937       -0.02623764543424
C           -0.25235055794526       -1.59600617435642       -0.01665508137732
C            1.15042484594305       -1.52826519801626       -0.00991649212188
C            1.73922200258379       -0.29495406156536        0.00581423403833
C            3.08347218704538        0.19226389545649        0.01372019099508
N            4.21468227323103       -0.53219984417215       -0.01098500760432
N            3.11033480421510        1.53636079260149        0.01826988680222
C            1.84643665156104        1.96308479664891        0.01248730536821
C            0.92393800260159        0.90216243107168        0.00550485164100
C           -0.47410355742541        0.86673052185412       -0.01076080792351
N           -1.06639175520367        2.06956256733392       -0.04115081152672
C           -2.33127967247085        2.38221025218536       -0.03550738852143
C           -3.48605091267367        1.59855770617252        0.01864668817277
C           -3.53506626861308        0.20964987060672        0.03538777968891
C           -2.48635854303291       -0.68521278739677        0.01128298630827
C           -1.09219055611626       -0.45463562218282       -0.00933148686164
H            1.71922759779292       -2.44819973479430       -0.01675699057938
H            5.09025014407832       -0.04661562750876        0.07390256222904
H            4.18846895696340       -1.52890642459317        0.10322323609883
H            1.62550661092659        3.01312611134746        0.01597394916929
H           -2.48738206544553        3.45899972145455       -0.07503411733541
H           -4.42836164941707        2.12826140141678        0.03628009399895
H           -4.52418728726622       -0.23161971921680        0.06327952973375
H           -2.76789511643899       -1.73204462729075        0.02036020850027
