28
 energy: -51.483709112280 gnorm: 0.000823827382 xtb: 6.6.1 (8d0f1dd)
N            5.65672429710271        0.26109343033928       -0.00449805657452
C            4.51275753267423        0.36163619381900       -0.04384309799323
C            3.10782056462486        0.46556101466404       -0.08931745182307
C            2.57635655438467        1.68755455613911       -0.53416472704347
N            1.39746430029598        2.16304312129716       -0.26948590733457
C            0.32198902869470        1.55492306830741        0.16131170616575
C           -0.01411786353280        0.19790310906125        0.04846951395159
C            0.95643573508212       -0.88074400104784       -0.01481403856768
C            0.49957806700206       -2.18746359021849       -0.19687271102319
C           -0.84254787194947       -2.52646277224286       -0.30524408113624
C           -1.79483238049910       -1.54328650760035       -0.13996698778664
N           -3.13801758421204       -1.65923901700016       -0.14936645638180
C           -3.61544869359213       -0.42948899720886        0.01244822624510
N           -4.93231431262210       -0.17162888101604        0.08766948318739
C           -2.57316313856277        0.55971765626684        0.13302203181007
C           -2.81498417625498        1.91733852080138        0.28013093285552
N           -3.08248856472509        3.03240796874601        0.40001461045430
C           -1.37636604670292       -0.16325828788719        0.04955513522108
C            2.35842186251481       -0.68516747896101        0.25347080356773
N            3.04618202273791       -1.71697151823416        0.77133719897461
H            3.24324837740587        2.37598304745634       -1.04262321389081
H           -0.45025634579119        2.23489106182708        0.50693745728334
H            1.22125799826483       -2.98289659780010       -0.32123635776819
H           -1.13845331453419       -3.54517921620728       -0.49761629060193
H           -5.57705542927670       -0.91995212418393       -0.09204342375946
H           -5.25835064516099        0.77821042011080        0.09673611088985
H            2.58252537909572       -2.57080120910192        1.02767276686040
H            4.04218828292036       -1.64258577853115        0.90427239589386
