29
 energy: -51.196066808644 gnorm: 0.000611300919 xtb: 6.6.1 (8d0f1dd)
N           -5.23035355957799       -1.04405862013116        0.49615394893333
C           -4.23207527800707       -0.50259868735627        0.31388489486264
C           -2.99660227305612        0.11491370594642        0.11087996696527
C           -2.76621092711179        1.40848462238829       -0.35713876930902
C           -1.38368300374573        1.63566450153169       -0.35621701852802
C           -0.64872200699641        2.76739985559146       -0.68194873726260
C            0.70947051638890        2.77133402365603       -0.45734579670334
C            1.38460021732349        1.64263307197692        0.03499369165206
N            2.58732040671942        1.85897575692291        0.54258271877658
C            3.52928724853978        1.03929822815923        0.91311049716275
C            3.72941310318018       -0.28672063649015        0.55932980299454
C            2.78236262000825       -1.13744722021482       -0.01909119678167
N            3.20523876369525       -2.37622646820220       -0.37655745381966
C            1.39129494826688       -0.85967588067298       -0.14505952797599
C            0.64211773850920       -1.91731762787048       -0.68393031660958
N            0.06702394845689       -2.81232192131133       -1.12825801159336
C            0.67999209607401        0.35263536420885        0.06087308696067
C           -0.71591079880853        0.41757541752049        0.06106363510683
C           -1.74699100835863       -0.51716101448679        0.38149109481318
N           -1.66662866527420       -1.70355249518431        1.01478191070602
H           -3.52292148019831        2.10903007811068       -0.65774305929151
H           -1.15002718229962        3.65689637551369       -1.03408382078943
H            1.29184396955962        3.66977128692355       -0.58687614023597
H            4.31254323211101        1.52031090430570        1.49235666331009
H            4.70827977968843       -0.70915431802054        0.74418995454913
H            4.18361314459733       -2.59758813448311       -0.33849640904106
H            2.57889159042688       -3.02842457930683       -0.81591276190824
H           -2.52089452368364       -2.22866328227529        1.11720177730850
H           -0.80598460762525       -2.22051142394722        1.04887537414890
