27
 energy: -46.967701135745 gnorm: 0.000742190252 xtb: 6.6.1 (8d0f1dd)
N            5.63123501734506        0.88024525273213       -0.00412819305649
C            4.53527207057996        0.52965154471683        0.00006877939807
C            3.19603962334277        0.10826310791740        0.00326738722968
C            2.95874491613698       -1.28985521534762        0.00206360196270
C            1.76872159958091       -1.94549231227012        0.00311005417188
C            0.43328764373681       -1.42312140144426        0.00199874476573
C           -0.60493901280259       -2.35773925741506       -0.00245416124484
C           -1.95995238509483       -2.03207407647793       -0.00698471080818
C           -2.29398633456917       -0.70125882557550       -0.00608291468586
C           -3.50848710838683        0.07273865683023       -0.00988679372906
N           -4.75875950089211       -0.41067463204456        0.00815279357830
N           -3.26773840170363        1.38789400726768       -0.00538323299631
C           -1.92695988611884        1.53997253923512        0.00158754864559
N           -1.28853271768507        2.70215320734373        0.00563874811866
C           -1.25081103524887        0.27841306703729       -0.00010446017627
C            0.10610933685607       -0.01538145818602        0.00393110402236
N            0.91989254458529        1.07634129081874        0.00975404848287
C            2.22326815822667        1.11583778400780        0.00937598372729
H            3.85399140019410       -1.90195045625251        0.00078248267203
H            1.82124400216224       -3.02765577607473        0.00273845131056
H           -0.33490380043086       -3.40467473072656       -0.00281446032553
H           -2.70205579240746       -2.81770048800090       -0.00975225104601
H           -5.52347205723728        0.23697083531415       -0.06470171461973
H           -4.92632606836623       -1.39390306624918       -0.10240561947624
H           -1.78706795113510        3.57400244944971        0.01107487281482
H           -0.27340595152251        2.61612221591569        0.01129661000582
H            2.61036899785451        2.13506168827842        0.01386132585820
