28
 energy: -51.463666950164 gnorm: 0.000649315761 xtb: 6.6.1 (8d0f1dd)
N            5.87134302078348        0.79307135401166        0.30063388765948
C            4.81539340725833        0.35504340651538        0.19181760027006
C            3.51716223607838       -0.17772387675963        0.05701492064282
C            3.40304669114130       -1.53046137872221       -0.31104598439580
N            2.36410375046652       -2.29612508406642       -0.13967709589827
C            1.12674563830864       -1.99236723747903        0.15598155178883
C            0.42337710275004       -0.78913917230717       -0.01602165130586
C            1.08623311328163        0.52851994174109       -0.03512478595058
C            2.44388914575387        0.72242595849432        0.16691383333265
C            0.23640035452503        1.68282576127732       -0.12438696439547
N            0.75287679813588        2.94670801287984       -0.20199429836669
N           -1.08622529320841        1.64459597046029       -0.11755253871231
C           -1.69177683630127        0.47640000019364       -0.03389165458621
C           -3.06120550487304        0.19489188030253        0.02666341757564
C           -4.12912819140723        1.08628474879069        0.05534524024037
N           -5.05506255943075        1.76947717741772        0.07877757581178
C           -3.19938493193673       -1.22834638476639        0.05230865205470
N           -4.38196639198190       -1.87015571088375        0.09924795825117
C           -1.92827031569611       -1.81928715586894        0.02281942174185
C           -0.97161526816730       -0.80293184435148       -0.01252937732846
H            4.28294803754428       -2.03449713247183       -0.69629580893225
H            0.54385120526292       -2.84760871964379        0.48284223844560
H            2.75286257406784        1.74199290115956        0.36894985778907
H            0.05046120606532        3.65263613467258       -0.35958062878095
H            1.64301852554343        3.10662646082677       -0.64007440276478
H           -4.41952615158830       -2.87226583061537        0.13026973536719
H           -5.23571284579366       -1.34151104547508        0.13312436316738
H           -1.74904377728124       -2.87809854643182        0.00960097857838
