31
 energy: -55.439314837063 gnorm: 0.000943246330 xtb: 6.6.1 (8d0f1dd)
N           -5.18040371101546        1.93938175042481        0.66051767549823
C           -4.30551040843126        1.22944765476089        0.43695615714562
C           -3.23949837242115        0.34305315033934        0.15752922706379
C           -1.98394241452985        0.94332193635303        0.10342069177194
C           -0.69744428356039        0.44616474602166       -0.09128229323298
C            0.35536419725799        1.41266078098468       -0.18769427704104
N            0.06454198732783        2.75507208246082       -0.29971415731321
C            1.69772557982622        1.02360828512514       -0.09636460619766
C            2.70093021005501        2.01197581411996       -0.18136121462340
N            3.46642427047233        2.86173018641841       -0.28033364912129
C            2.02943969435738       -0.32805486118552        0.04555136040295
C            3.25602766248069       -0.99027654476423        0.16735853434909
C            4.52467272497038       -0.41607389863895        0.25072423292075
N            5.58397153377423        0.02522594209254        0.32369022626235
C            2.98128994513326       -2.38337147979970        0.19714888851130
C            1.62525721911091       -2.59025695918360        0.09046783036719
C            0.98084487537263       -1.33249928719243       -0.00189276079812
C           -0.36188266055056       -0.97146546884098       -0.11161289744618
C           -1.30506330705269       -2.01449353434099       -0.26387651133552
C           -2.67138745663830       -2.04334960155979       -0.29390678921258
C           -3.59762791699912       -1.00563129686080       -0.07554836439418
N           -4.90925826685952       -1.32605787873887       -0.08329770492112
H           -2.03058983870285        2.01068902598679        0.28974487443486
H            0.86746166868318        3.35602333159812       -0.41612451617865
H           -0.73554937844578        3.02906115814534       -0.84591006115074
H            3.73386572281052       -3.14495074841388        0.29304534347494
H            1.15294073574177       -3.55493840252191        0.09893627304003
H           -0.84160291434487       -2.98363134220801       -0.39311711070124
H           -3.12163311386711       -3.01472030273803       -0.46288916964951
H           -5.60741890069114       -0.62571149440745        0.10321247633532
H           -5.19992488606393       -2.27801621463689       -0.21772946866061
