28
 energy: -49.895309638836 gnorm: 0.000191947143 xtb: 6.6.1 (8d0f1dd)
N           -4.02387014821703       -1.72722355999674       -0.74770239388200
C           -3.02535113628676       -0.94221719446179       -0.27132483506655
C           -1.79577893853686       -1.56832669298860        0.01301696724095
C           -0.54890533891725       -0.98423484875504        0.20278555041576
N            0.46081330033072       -1.83777284925690        0.41877180848355
C            1.72513424344912       -1.44809959290594        0.33025371784106
N            2.67240108957088       -2.39067185968911        0.59966353280072
C            2.05623080786421       -0.15182337549279       -0.08486609229247
C            3.23549079524588        0.56736116837691       -0.33825789035213
N            4.52784038691260        0.10521829666809       -0.33173916607651
N            2.97449786647581        1.87867233901153       -0.55889416092924
C            1.66076060445468        2.03911441254057       -0.46040438760339
C            1.00105396058960        0.82434036349616       -0.18143091964599
C           -0.32902741730690        0.46824042669026        0.05363966244234
N           -1.24426503567689        1.41483543753067        0.17466411891425
C           -2.55242003911725        1.29433712192369        0.28900885764412
N           -3.17629867962765        2.39297937257239        0.77744823393766
N           -3.37988246490290        0.32062345257330       -0.09144406448176
H           -3.92134119010043       -2.72461554586242       -0.77571700233053
H           -4.93528742973453       -1.31822948918616       -0.84992672439074
H           -1.78519325826862       -2.65055419101481       -0.02435408772564
H            2.33100258275945       -3.22458913733012        1.05067288961025
H            3.58518975175156       -2.06528535975433        0.87076165689944
H            5.18472690772808        0.78776030583784       -0.68155076812321
H            4.66561481617342       -0.82549948341666       -0.69643871169585
H            1.21240727495855        3.00456312221004       -0.60035497582351
H           -4.17497947607827        2.45145677476667        0.69266619607199
H           -2.63179258609186        3.22873699791260        0.89485033771802
