31
 energy: -59.459379685649 gnorm: 0.000749110249 xtb: 6.6.1 (8d0f1dd)
N            5.74651394369253       -0.07499612923407       -0.51458202442746
C            4.62733420532645        0.15245330735513       -0.39106377835619
C            3.25167464949460        0.41240601635967       -0.22585137523414
C            2.77455584958857        1.64989978856725       -0.67484245154945
N            1.70761368756290        2.25012502958068       -0.24732995475237
C            0.66529993312343        1.77500130704649        0.39851372574378
N            0.03130401907472        2.61441391774142        1.21922136380884
C            0.14327166204502        0.43995848767206        0.18801109452216
C            1.02320917128871       -0.69441836742805        0.21006224862483
C            0.46757264293614       -1.97953552919485        0.12542005322051
C           -0.89460652599639       -2.20943018139346       -0.02873628649180
C           -1.36423526950216       -3.53286622655684       -0.16039555206573
N           -1.70246505288264       -4.62492032840429       -0.25284909187213
C           -1.76846810777833       -1.12047795659148       -0.06924545276967
N           -3.09380410926505       -1.11948512240711       -0.21878857351019
C           -3.46632757168978        0.16834863729073       -0.23704271859378
N           -4.76135958738374        0.52193709310999       -0.34531683687663
C           -2.36662260442316        1.05941666326666       -0.07059350218787
C           -2.47469122449695        2.43903170316683       -0.09298129489328
N           -2.59410721663655        3.58746957835989       -0.09501881919239
C           -1.22724022297853        0.22540499739273        0.04828879687010
C            2.45593963066704       -0.60943177483320        0.34784833455084
N            3.10415657060585       -1.63500063375659        0.92196634870429
H            3.40407759010370        2.24103804322124       -1.33025977572179
H            0.31144293439769        3.58267167973799        1.22912560969930
H           -0.88162817154029        2.38742495383467        1.57837821543901
H            1.11499175910834       -2.84390894899047        0.08702356128509
H           -5.41782598260910       -0.20003146230137       -0.58535229591588
H           -4.99851399228178        1.48006239673261       -0.53406165904690
H            2.60333659877011       -2.42338513899754        1.29370983666317
H            4.11154666127579       -1.66382638164284        0.90492082801415
