30
 energy: -50.108544740709 gnorm: 0.000656087983 xtb: 6.6.1 (8d0f1dd)
N           -4.04155979815894       -2.12001999339415       -0.54671739803146
C           -3.13674684714465       -1.44158156926566       -0.34292042924154
C           -1.98160835760979       -0.66842327464058       -0.11774324030857
C           -0.72269906198633       -1.29084360960257       -0.10596554037123
N           -0.69435136915043       -2.69422647343969       -0.27860869405701
C            0.47252829536448       -0.55836400027042        0.08587250124172
C            1.68953187424960       -1.26448028982041        0.40488243617121
N            1.55745751606572       -2.46956920903515        1.00183532746487
C            3.00658631427234       -0.86346912983900        0.18343984356106
C            3.54314028010061        0.35186374896235       -0.22410079387461
N            4.88208950227467        0.40776262626832       -0.45442712025629
C            2.83210121768593        1.56453834031967       -0.30073006775489
C            1.50055021518344        1.77024191261515       -0.07803274572741
C            0.41265077017834        0.88602915471089        0.07418541557405
C           -0.85515508161875        1.49236956996281        0.15524163313002
C           -1.31243124336478        2.81275426106034        0.24825086812678
C           -2.70320199279987        2.73176721404978        0.25328332749165
N           -3.16704382579020        1.47899672703467        0.14410365409277
C           -2.07802574484161        0.70724008200619        0.08263344060269
H           -0.02146614919907       -3.00218708236482       -0.96951007614443
H           -1.61608567998561       -3.05733467861208       -0.49326340199728
H            0.63959690282848       -2.87499353517572        1.11089443613456
H            2.37203998167614       -3.00742687852907        1.23614775577450
H            3.74288952796755       -1.63870965912437        0.37376018554400
H            5.29750892577863        1.25569764796532       -0.79384916600043
H            5.43479953803553       -0.42973186389048       -0.46200667714819
H            3.43168521220433        2.44057391415122       -0.51576972023790
H            1.19711772292655        2.80853174218537       -0.10163394808051
H           -0.74058752307449        3.71760341878923        0.33173996352959
H           -3.39654411136865        3.55087684362337        0.33418354868974
