30
 energy: -54.941963320457 gnorm: 0.000994205533 xtb: 6.6.1 (8d0f1dd)
N           -4.69138992771980        2.14407613698847        0.70145611037778
C           -3.78193699706940        1.47423004796046        0.48711932676901
C           -2.69078348317821        0.62952048569860        0.20740773372700
C           -1.42690484268780        1.17948730003127        0.26782532444273
C           -0.16207257515364        0.62272910241908        0.02109019555578
C            0.92689137707137        1.55252526886719       -0.10710909736211
N            0.67778519478877        2.90560719073549       -0.18751859311737
C            2.25291705812101        1.12034709622671       -0.11271576359222
C            3.30096343095826        2.04820102269604       -0.24961048501987
N            4.14605760347532        2.81639952219024       -0.37971578352713
C            2.53985222795905       -0.25090699448001        0.00043662836833
C            3.69886835554425       -1.01260255674238        0.05811985311076
C            3.26669410272856       -2.33845469535258        0.14890983989950
N            1.93818945753506       -2.45684036610810        0.15310809063026
C            1.44167873867027       -1.19306929991907        0.05847049244676
C            0.11083135956802       -0.79038570009579        0.02428387362722
C           -0.90896384046005       -1.83066972898966        0.04534911321783
N           -0.48270440428365       -3.06217391664170        0.26834326898422
N           -2.20813661431408       -1.73972889342759       -0.22423533933677
C           -3.00724920299970       -0.70540817040934       -0.22380385132398
N           -4.26659218737314       -0.94837825047987       -0.63064995023599
H           -1.42170895494305        2.22761403310856        0.54531321280698
H            1.49061487709771        3.47841400347085       -0.35942277192805
H           -0.15568972672628        3.21888376908694       -0.65345579842042
H            4.71220064009489       -0.66377235818968        0.04130560398803
H            3.88188130148050       -3.21816944623458        0.21954723266256
H           -1.15563503173577       -3.80984988744176        0.21708214401408
H            0.56483862962622       -3.19552081567432        0.30159024286275
H           -4.97593179882648       -0.23744522240484       -0.57595029501968
H           -4.51399858954859       -1.88850522688962       -0.88610245460802
