29
 energy: -50.395445051423 gnorm: 0.000333317985 xtb: 6.6.1 (8d0f1dd)
N           -5.06177869321581       -1.08646544274876       -0.00645254614530
C           -4.03189564540641       -0.57038841586632        0.00561499191813
C           -2.82421998743659        0.11717055539448        0.00792669722504
C           -2.70042535336373        1.53553240139797       -0.01280766130631
N           -3.75048144725817        2.39340474081838        0.02733591382167
C           -1.34337628599446        1.88646501074300       -0.02204719774664
C           -0.58408764767200        0.71614754598658       -0.01235178538919
C           -1.52263104942541       -0.40879879527617        0.02029916678724
N           -1.14165337205433       -1.66906890444563        0.08557966915625
C            0.15507984090247       -1.94186031869002        0.07236561465995
N            0.44025821626213       -3.29431586454558        0.11645460395308
C            1.18760958053671       -0.96661823537900       -0.03298722283674
C            2.50225153886331       -1.40686692975093       -0.22330357495079
C            3.69296539491009       -0.71669103823269       -0.22044804218953
C            3.88352091015479        0.66286603296015        0.00463327281486
N            5.14061981826197        1.10619323729153        0.22225082165708
N            2.98161869663053        1.64257271429452       -0.03058582477397
C            1.68062811963309        1.52609782077527       -0.11845246289574
C            0.79201939258662        0.44312581306394       -0.03332985385036
H           -4.67235051346550        2.02217843376988       -0.12864458879569
H           -3.59595561374518        3.36448907317489       -0.17938397334196
H           -0.98245946316383        2.89864021609724       -0.02859774785467
H           -0.39811479269369       -3.83735404080393        0.26708850084235
H            1.22190267150704       -3.59052477713582        0.67819730769074
H            2.60425586469287       -2.47247894973287       -0.38770633871607
H            4.59688271094710       -1.29787139706114       -0.35325315092873
H            5.92852479553172        0.48496819265974        0.21665585559130
H            5.27948559176477        2.09415968485420        0.34200247232371
H            1.20222930070961        2.49498732248732       -0.23226958941960
