26
 energy: -47.236131988956 gnorm: 0.000833674020 xtb: 6.6.1 (8d0f1dd)
N            5.37953243202901        0.32129226314932        0.12409187289729
C            4.30055875916364       -0.07625629573427        0.10122416030019
C            3.00317139654662       -0.58010580604583        0.07379265217182
C            2.62606685002083       -1.95382973211489        0.05286183314654
N            1.32349385782714       -2.14937574999779        0.02402212724924
C            0.76282394742667       -0.90781903961797        0.02943991322960
C            1.79182187617442        0.11838443689942        0.06941942037377
N            1.51089064565137        1.42156648516588        0.10331991429247
C            0.25017390836492        1.78103937396444        0.05620482897986
N            0.03472966975299        3.13300110715217        0.09446710545669
C           -0.86446122559534        0.86517555399483       -0.07159977820064
C           -2.12866419360048        1.37772322232150       -0.34264787132540
N           -3.32983199178890        0.85360964625585       -0.21046091482503
C           -3.67827511259982       -0.39431241748438        0.01197770791164
N           -4.96526446787727       -0.56892981262417        0.35990960591549
C           -2.87535968999872       -1.57041616672685       -0.16143158040456
C           -1.52224302782277       -1.60922128272314       -0.18247285529610
C           -0.57196424478819       -0.55508061421486       -0.03889008902030
H            3.30432240893380       -2.78914088581846        0.05609746852342
H           -0.81015901871069        3.49027301762656        0.50456218039061
H            0.87371739761248        3.66070139517782        0.28097728275733
H           -2.18107271655964        2.41641823633014       -0.65769958274526
H           -5.54862538153922        0.24258039086503        0.46740718636946
H           -5.34925712832954       -1.48436212927857        0.50977027916211
H           -3.41665751143328       -2.50491191891114       -0.23381892191339
H           -1.04436399606007       -2.57785664051154       -0.26899995609722
