32
 energy: -58.385991195899 gnorm: 0.000815857692 xtb: 6.6.1 (8d0f1dd)
N            5.15603296426717       -1.66726547787653        0.58659913992900
C            4.19678481601877       -1.06296135278829        0.39220637354963
C            3.03311158997084       -0.30680372306257        0.14416843005035
C            1.85198493467658       -1.02624520687949        0.12520270803421
C            0.51491367416021       -0.66607301644646       -0.06224600194636
C           -0.40663311694979       -1.76554094287639       -0.15045509630354
N            0.05337346460665       -3.05758691491772       -0.27269538394795
C           -1.78984820573515       -1.57980571698203       -0.06094217506794
C           -2.66448371466079       -2.67777120245026       -0.14345483727988
N           -3.34053288310383       -3.60269531196861       -0.23370402117791
C           -2.28748727086905       -0.27869883841441        0.06032222490277
N           -3.53752897852244        0.16864562468227        0.14391365945454
C           -3.39455170615900        1.51142710794696        0.14434529072328
N           -4.46111900767548        2.32643014856414        0.27101396301508
N           -2.13928181819592        1.97029134130566        0.05560258382500
C           -1.37309096385763        0.84339718433037        0.01184311701122
C            0.00782706193235        0.69286436589717       -0.06843456607094
C            0.81173415234708        1.89086486314899       -0.15702912285311
N            0.12866237768622        3.03570054804840       -0.19966541885396
C            2.20731442228725        2.01215547631557       -0.23938102244891
C            3.22325151952162        1.08693831416818       -0.09847749319569
N            4.50274736150126        1.52217939443773       -0.18407206974980
H            2.01044918939242       -2.08018641470300        0.32255251688526
H           -0.66802617540448       -3.75351194080911       -0.38961744653909
H            0.89220018322853       -3.23080273986314       -0.79963855914999
H           -5.36355017063020        1.90170480992857        0.15023738227498
H           -4.34847599131242        3.29879295307009        0.04735195454964
H            0.61515792554393        3.91356884432928       -0.25710905465340
H           -0.90524714857309        2.97739639912450       -0.10669388169018
H            2.55022776110402        3.03268901827822       -0.38260753534951
H            5.26516294895774        0.88548282487400       -0.02679329391452
H            4.70170490374550        2.49914883038822       -0.29962819281034
