29
 energy: -49.593273209687 gnorm: 0.000910965891 xtb: 6.6.1 (8d0f1dd)
N           -4.16223459456817       -2.05513246985542        0.49202817213193
C           -3.02944027923585       -1.39894494769754        0.13254615680602
C           -3.12870265524882       -0.04640141670600       -0.21360055317347
C           -2.12337377598645        0.90763887308898       -0.34006546659284
N           -2.51209012614535        2.11733971901910       -0.79218966721229
C           -0.72880798305492        0.74159290002731       -0.01550767449163
C            0.09483599803186        1.85600639475560        0.22707048409433
N           -0.43378626106117        3.15614253559849        0.41506787477431
N            1.42399236316095        1.84082840846312        0.29557133886288
C            2.04642104737783        0.70096931909122        0.11636697450419
N            3.37221881895747        0.51605774684199        0.12081348976303
C            3.54048836369522       -0.80635387510937       -0.01322094612362
N            4.78771406888024       -1.33827660034155       -0.10700043680200
C            2.32153637891521       -1.52788649812690       -0.10697011707999
C            1.32573898085476       -0.57268784539869       -0.04543770633714
C           -0.08634187471763       -0.56270299136014       -0.06255563751483
C           -0.72288333171337       -1.80733289408924       -0.11546181309731
N           -1.96198404718422       -2.19086640635999        0.07570775221856
H           -4.10238483816915       -3.05217541074718        0.59899215409938
H           -5.06331732006413       -1.62298523417349        0.40325545413505
H           -4.13731500314761        0.31892445455458       -0.37682390775918
H           -1.83165276210032        2.86170804663912       -0.84908071564226
H           -3.47008762727497        2.27543487505253       -1.04791871249651
H            0.34535327924421        3.77699903849903        0.60682915506827
H           -1.11444538885391        3.20257956459394        1.16465569705502
H            4.90221285601388       -2.31525792058421        0.10237419966259
H            5.54122379605718       -0.72176100590224        0.14760853624788
H            2.24200730554141       -2.59327983488763       -0.21241208632764
H           -0.05677163500362       -2.65406809508550       -0.25257281867273
