25
 energy: -42.709477027928 gnorm: 0.000178904039 xtb: 6.6.1 (8d0f1dd)
N            3.29420531363664       -2.08747774082127        0.66223220604693
C            2.68484307832381       -0.97974155225521        0.17569025030466
C            3.49510275767678        0.09217784551235       -0.27095809482274
C            3.01284560074028        1.35929646602437       -0.52996822659129
N            1.84849989531837        1.89676114729424       -0.24290072670320
C            0.69878883349674        1.30713139430650        0.06219563423799
C           -0.37450115451438        2.15062692034883        0.39466753585630
C           -1.68626674404101        1.72271208985033        0.36252918299485
C           -1.95474607189342        0.41503918667791       -0.00875534527328
C           -3.13418813737758       -0.35777821907703       -0.17188475224812
N           -4.41395774183210        0.03853917304965       -0.00170483195913
N           -2.84424678805605       -1.64242599505459       -0.48338803847715
C           -1.51948204409003       -1.74454103772020       -0.51416006385965
C           -0.88184590409416       -0.51750626518297       -0.23643324456373
C            0.45452103487481       -0.14323909911394       -0.07880387325329
N            1.37274015206228       -1.08132247575574        0.08793453638069
H            4.29247181595769       -2.18288164060546        0.63325428262047
H            2.72390024456421       -2.88968714017674        0.86372184636179
H            4.55315970165550       -0.09517805692172       -0.39569108710960
H            3.71040939569619        2.07875003111968       -0.95280658889353
H           -0.13893191682713        3.18298189936029        0.60285983860662
H           -2.48587821175809        2.41582515366346        0.58716520987332
H           -5.13190003043358       -0.60890575013267       -0.27791687915965
H           -4.62960204067264        1.01935982425179        0.01218951039922
H           -1.05105682261328       -2.68153768954182       -0.75168479916836
