25
 energy: -42.714030645889 gnorm: 0.000666379733 xtb: 6.6.1 (8d0f1dd)
N            2.80654947787520       -2.33005787677031        0.06614577607557
C            2.30170022221918       -1.06819771360442        0.01741485967126
C            3.24212346902525       -0.01241858046125       -0.07394027366081
C            2.95589695162615        1.33777105761797       -0.12333090175808
N            1.82351049889202        2.00033257230898       -0.05441454704482
C            0.58599426956762        1.49117381897585        0.01126200838945
C           -0.42527138503956        2.46921517805777        0.08338306494996
C           -1.77657952027576        2.19330675656207        0.08030188557226
C           -2.17175784866944        0.86557640939153        0.00702750732103
C           -3.39760677885045        0.16962342598644       -0.02953606060694
N           -3.23598027153549       -1.15335253515952       -0.09085780521147
C           -1.90627705812321       -1.38030068423981       -0.09042733888677
N           -1.33878328605911       -2.58569777391721       -0.12963085486309
C           -1.16717806556789       -0.15630440983649       -0.03306068293058
C            0.19853845622800        0.07570422848334       -0.01591792973510
N            0.98499863737375       -1.02246225002521        0.01233792174801
H            3.78868550759448       -2.47629155643389        0.21209144565009
H            2.17636192915162       -3.09225802341155        0.24278888987420
H            4.28456090370801       -0.30103675717477       -0.10509127833281
H            3.81331275107447        2.00224940432733       -0.21368811214103
H           -0.08010351261967        3.49131043283773        0.12240999935981
H           -2.50141022763873        2.99329942140672        0.12366917249770
H           -4.38756312274843        0.58877216993434       -0.01228847891934
H           -0.32610267269765       -2.57222891650713       -0.15517349770646
H           -1.89482175171032       -3.41585813554848       -0.22905041471208
