29
 energy: -50.396025186621 gnorm: 0.000544660840 xtb: 6.6.1 (8d0f1dd)
N            0.07744878373713       -3.37984114138995        1.15179716932739
C           -0.42674857729643       -2.42260292109865        0.75065076391932
C           -1.08188370601915       -1.27434438155032        0.28873554083816
C           -2.45685541604054       -1.44424980253861        0.15539795992319
N           -3.41863676718744       -0.63308340113246       -0.21266869449882
C           -3.31175257884396        0.69705882565734       -0.28900524573210
N           -4.44427812774110        1.29060457133024       -0.74367869667508
C           -2.25133994032672        1.52291056782129        0.09501187445817
C           -0.89643243127770        1.23471222365587        0.28973435806771
N           -0.16266316462626        2.31750789549206        0.59131610677214
C            1.15465618699608        2.25763747296396        0.56449882568861
C            1.82878905769453        1.13346095754779        0.14663042328060
C            3.20558519278865        0.85813893819430       -0.07824222007059
N            4.21488136459587        1.75401237098041        0.03336003212103
C            3.31408048551373       -0.46738184085294       -0.49940427585494
C            2.05164967347330       -1.06547545072640       -0.52184584448009
N            1.82815281175727       -2.29242464097723       -1.04441548749153
C            1.07966821866233       -0.08565038963860       -0.09408928443175
C           -0.29039124610212       -0.08110228122795        0.11372645064115
H           -2.81866934329314       -2.45374629334079        0.34375093592513
H           -5.24694568012308        0.70543304015224       -0.89446023360724
H           -4.55913783072900        2.28578491556778       -0.68711631467645
H           -2.46881607503488        2.58226394166942        0.15038872356961
H            1.66458896192589        3.17151333031241        0.84869174609981
H            5.16255996007292        1.42022868500314        0.01382513377677
H            4.03796700959164        2.62462044332842        0.50223577595002
H            4.22863405686503       -0.95891398553289       -0.77779065841070
H            2.64346978712566       -2.86280093363034       -1.20154660802091
H            0.98867156413661       -2.79369681844284       -0.80412406481037
