25
 energy: -43.514482918622 gnorm: 0.000429525673 xtb: 6.6.1 (8d0f1dd)
N            5.10783057978771       -0.84551887367174        0.01805001277132
C            4.04985273711397       -0.39564482886320        0.01594493111508
C            2.74254166802812        0.09829278384908        0.01090522285016
C            2.34926759340674        1.43657598176741        0.00439869416289
C            0.94224519843996        1.48428452643898        0.00193678838021
C           -0.00176014985093        2.49038440640580       -0.00375109750406
N           -1.30180383307372        2.23853656153028       -0.00470317498997
C           -1.78307479651994        0.99204338049991       -0.00020578200627
C           -3.19627113169626        0.94085773861014       -0.00231107808867
C           -4.03436488818380       -0.15034056419684        0.00094714557391
C           -3.69347040268771       -1.50033221574969        0.00733791689527
C           -2.40818016610435       -2.04012548852228        0.01182261541820
N           -1.22240662952502       -1.48968107460981        0.01132602133197
C           -0.90494956640556       -0.17640045866554        0.00613113258349
C            0.45432615059776        0.12084312188402        0.00695985017622
C            1.58055290004296       -0.73562248654142        0.01243036971277
N            1.51748205967098       -2.07025280299842        0.01803994264161
H            3.01199272258736        2.28182006589723        0.00193397620623
H            0.26675499743668        3.53955903597147       -0.00763576997986
H           -3.65198034950874        1.92212900061728       -0.00726356539408
H           -5.09565114938299        0.06745092669294       -0.00177462257979
H           -4.50689856534733       -2.21283156773781        0.00904970907521
H           -2.35368049911941       -3.12805835564331        0.01667448481873
H            2.34813882761127       -2.63609262779707        0.02195331711488
H            0.58500992368230       -2.46471671826742        0.01828479431458
