25
 energy: -43.511923688702 gnorm: 0.000845019260 xtb: 6.6.1 (8d0f1dd)
N            1.46287481063420       -3.25930666373190       -1.02757897605327
C            1.47814211598032       -2.16685376520416       -0.67529753483012
C            1.59817502946739       -0.81362818615516       -0.27326403743936
C            2.90008563190596       -0.31565549995918       -0.41869801115526
C            3.41048182475526        0.88600012371244        0.02935191310169
C            2.65396913518234        1.87747157302591        0.66320744642025
N            1.37679417602545        2.08374541684472        0.57000869313366
C            0.37862025761301        1.35345731708924        0.11944605178780
N           -0.72219331929451        2.01948191702836       -0.18412533899610
C           -1.89867129602226        1.39730345414676       -0.26611225752193
N           -2.93892662889264        2.14681233084101       -0.66367438502556
C           -2.03158016234677        0.04129767760931        0.09224100838851
C           -3.11490500417844       -0.81855486080715        0.24017906444948
C           -2.61603401968567       -2.10320597132896        0.51779957923494
C           -1.23677379062044       -2.07593659437514        0.51240133604795
C           -0.82442064335510       -0.74421495310164        0.25250794248574
C            0.41398878400077       -0.13338872358045        0.08927894584462
H            3.60871571053470       -1.01470054739484       -0.84885280148738
H            4.47659018511225        1.04402124660886       -0.05294135688660
H            3.18059003805842        2.63013399309626        1.24259869207131
H           -3.87275245879085        1.78048222762437       -0.64391162111029
H           -2.77993144715334        3.12272141119696       -0.84337434899419
H           -4.15597122755605       -0.55939733189983        0.16385796479379
H           -3.22240338556026       -2.97183783029595        0.69918027538615
H           -0.58800853291227       -2.90843775138870        0.70581246925494
