28
 energy: -50.698637841587 gnorm: 0.000957309696 xtb: 6.6.1 (8d0f1dd)
N            1.60874931801887        3.96303772888197       -0.01974607437142
C            1.02751776270336        2.97023489535737       -0.01601648380225
C            0.27737699677555        1.78060431597217       -0.01224375137144
C           -1.11585773001828        1.91548310294200       -0.01973493710911
C           -1.87435149639017        0.77117117139755       -0.01772945681389
C           -3.26986959504008        0.45061547413816       -0.02261805296005
N           -4.29081989700151        1.31852160984169       -0.01454852826829
N           -3.48710101216157       -0.87579511584151       -0.01534820954251
C           -2.28038140881574       -1.46676120358207       -0.00507877985664
N           -2.06076565029247       -2.77452593971212        0.00305103121512
C           -1.21686966638087       -0.50323378163365       -0.00708727588210
C            0.15202885016659       -0.68257889027439        0.00182394935272
N            0.57396333767312       -1.97906736706213        0.01612720094897
C            1.79970562041337       -2.42117326093116        0.02529588748166
N            2.99725590963220       -1.87528524628589        0.01679333809994
C            3.24112371204873       -0.55668711406653        0.00382830653490
N            4.56280964844595       -0.27870237565785       -0.00322899101483
C            2.35480831578068        0.52879042139038        0.00004087448105
C            0.95626020873936        0.52486120046307       -0.00230258469468
H           -1.54903070108992        2.90619476117387       -0.02621875760773
H           -5.22768580374663        0.96080727140122       -0.07284358249655
H           -4.12626258273197        2.30493328626786       -0.09746552670682
H           -1.07445272515532       -3.02970085687054        0.01333688437243
H           -2.81863498771169       -3.43351042253532        0.00947745681747
H            1.85027291810934       -3.51223858623972        0.03927130262041
H            4.90436732043405        0.66493449610264       -0.01467449272558
H            5.20512274692036       -1.05112048131222       -0.00082950558159
H            2.82560652047474        1.50497351747518       -0.00553953241910
