24
 energy: -42.987915885046 gnorm: 0.000539602787 xtb: 6.6.1 (8d0f1dd)
N            4.24918791663806       -0.72544415380557        0.48184958691007
C            3.03265339412989       -0.47510431655396       -0.02477518615553
N            2.78800757018193        0.79340736285022       -0.34867826286696
C            1.60508774932629        1.34750973773423       -0.43548795353660
C            0.34173202250097        0.85785435003332       -0.08267944973917
C           -0.74032294084329        1.77666521052271        0.09533399147476
N           -0.51437818524313        3.12846330690308        0.14227164423402
N           -2.01354108052467        1.43366435349629        0.19289940076775
C           -2.32759181479280        0.15397840877557        0.15311534124049
N           -3.55434704056108       -0.35868521505204        0.20043080338862
C           -3.38918970253255       -1.69037130236247        0.15068748307717
C           -2.05936982179719       -2.09609518742090        0.04375250943674
C           -1.31129308544655       -0.91775442204270        0.04120064841511
C            0.03101258304249       -0.56820942291074       -0.08262766040800
C            0.98621808056415       -1.56847275071675       -0.37297317126674
N            2.28572436490526       -1.55417424964978       -0.28236436018338
H            4.90794025896193        0.02724305152020        0.57610677525464
H            4.53425801034616       -1.67875362381112        0.62095036987802
H            1.65449157577416        2.37534694593400       -0.78540063695768
H            0.35260451880899        3.47413299684369        0.51410764641588
H           -1.34008775442609        3.65595006859458        0.38001475694635
H           -4.25400912213717       -2.33023344637120        0.18621889441427
H           -1.70676599382551       -3.10866148975984       -0.00063136361579
H            0.58560511194991       -2.54072846925084       -0.64311625272410
