27
 energy: -51.757092579302 gnorm: 0.000757651396 xtb: 6.6.1 (8d0f1dd)
N           -1.88314521314906        4.37891745022753        0.11291929702428
C           -1.69354545193246        3.24877020940579        0.07826367295537
C           -1.46686480815313        1.85088892773071        0.03279305046567
C           -2.60152022974662        1.04118782797659        0.11370241179268
C           -2.69605626506815       -0.33351351475113       -0.00600045524015
C           -4.02303810610745       -0.82652033826458        0.01480480441454
N           -5.09946603088796       -1.22719551493957        0.03162173180282
C           -1.66992902481168       -1.32466090048359       -0.16348998708478
N           -2.11423544692207       -2.54685310084024       -0.49403008146268
C           -0.27387557858356       -1.13619813615364        0.02848010264921
C            0.52880782736975       -2.27405734667493        0.24746556924519
N            1.84228998622927       -2.33288136209294        0.32787208064830
C            2.49646213011635       -1.19863063202743        0.15889724482830
N            3.80946508193673       -0.97580016542607        0.14826060761803
C            3.90015168490195        0.35723480884321        0.00241526697947
N            5.07385911799726        0.98698911802388       -0.06245499095174
N            2.72541954825910        1.04429828753931       -0.08488419704312
C            1.80669566781118        0.08833894359187       -0.00486037947592
C            0.40103481605343        0.15797049114393       -0.02722779926508
C           -0.14162827531209        1.43538433365747       -0.08104954281349
H           -3.54554068454152        1.56250901063866        0.23536165778238
H           -3.10421566941423       -2.72281476887140       -0.56856713123194
H           -1.47604266645930       -3.30792133571122       -0.64828087486411
H            0.06096219083386       -3.23303223083328        0.43755163022823
H            5.91886451271938        0.45184765807593        0.01881197981412
H            5.09341629326663        1.98648128045370       -0.14805094996595
H            0.60513823069464        2.21819974316150       -0.15554397394954
