27
 energy: -52.559469543066 gnorm: 0.000507098203 xtb: 6.6.1 (8d0f1dd)
N           -5.54809154918670       -1.22463899089968        0.27243511676422
C           -4.48689417789272       -0.79729434553659        0.20872046610719
C           -3.17823124248956       -0.26399903665072        0.12271556450259
C           -2.99562015206481        1.08305566691306        0.51486615586506
N           -2.02111558536590        1.83783898005922        0.13366652532457
C           -0.87181567129371        1.57233241582620       -0.44208236149175
N           -0.37487020341687        2.48515989963715       -1.27208936611172
C           -0.10144140349218        0.37304184964104       -0.14683592433876
C           -0.75466834937555       -0.90715475535453       -0.19854481029503
C           -2.14898767505037       -1.11659678768179       -0.24266729785394
C            0.04670817812086       -2.07380101833002       -0.21995424033463
C            1.41637883193456       -2.04532672051397       -0.05425095702866
C            2.15595343844320       -3.25075677342877       -0.04608522259549
N            2.72725124755601       -4.24348004852480       -0.04886555552776
C            2.05709827501345       -0.80636155313346        0.12012136357383
N            3.34976879741222       -0.54499057354790        0.29284785888586
C            3.46139288639034        0.78403988456711        0.38178431134381
C            2.23980044512301        1.44893389596031        0.22279149681037
C            2.02802071588015        2.82210158762689        0.27618872619179
N            1.82931538487474        3.95663235206714        0.28459983811196
C            1.26884815088087        0.41565446510544        0.05191299938019
H           -3.75852611617629        1.56643525356138        1.11439805776357
H            0.57925448343758        2.43117022668656       -1.58974019880863
H           -0.85895373319146        3.36280381906221       -1.38140125986625
H           -2.44990799380070       -2.13865222547284       -0.44696449836794
H           -0.44443029215533       -3.03054361938816       -0.32104933488477
H            4.41985170868494        1.23952307424945        0.55079554718029
