29
 energy: -55.210521882239 gnorm: 0.000963090220 xtb: 6.6.1 (8d0f1dd)
N           -5.84247353053525       -1.41479634918891        0.43654086344471
C           -4.74082144744118       -1.08607787437501        0.39944228165354
C           -3.41085720162579       -0.64333455728883        0.33784093534814
C           -2.40088421265401       -1.39885085080282        0.94115192656990
N           -1.11455618621493       -1.32549537646352        0.73666588778328
C           -0.37274315042882       -0.33442000933844        0.29507840153791
C           -0.87050213911157        1.07419270354694        0.23210371314496
N           -2.07472749229028        1.32618486370525       -0.22349657459089
C           -3.12809595540636        0.55636629105144       -0.39208207925290
N           -4.04909451134044        1.01752871523472       -1.26031450221049
N           -0.07156731510304        2.09240762956079        0.48823356296802
C            1.24982934890197        1.92824818128475        0.45898737184497
N            1.99476530193263        3.00185325244339        0.80817286831074
C            1.81844500610454        0.72202831960780        0.01086682583032
C            3.13410874284572        0.31168792392945       -0.24640526078049
N            4.25876507208676        1.08550276114856       -0.28568147465265
C            3.11341965822417       -1.10896551397221       -0.41406607752066
C            4.25324875412781       -1.86051478945829       -0.70841978348437
N            5.22237175561125       -2.42630597491067       -0.96072466098843
C            1.80816961922731       -1.56881431322068       -0.26355721685720
C            0.98124789878143       -0.45900601077542       -0.01497522632334
H           -2.70130662668195       -2.23470909438717        1.56515701517556
H           -4.94773041741265        0.57198683320436       -1.33390016322970
H           -3.90187029133967        1.92070030530723       -1.67617198275528
H            1.49500319149528        3.76409478360159        1.23715828252551
H            2.95810829735762        2.86393390712687        1.06209679843392
H            4.15073977182455        2.04007425958263       -0.59170489514308
H            5.09101295148337        0.62308417504778       -0.62206868103240
H            1.48564386468082       -2.58990378490871       -0.33376979505285
