29
 energy: -46.408513171270 gnorm: 0.000812439139 xtb: 6.6.1 (8d0f1dd)
N            1.61505155949085       -3.32467050018175       -0.56353427724527
C            1.87485343908847       -2.21094276842319       -0.40338141740437
C            2.18719862423780       -0.87202534458964       -0.20756068185148
C            3.47821899237755       -0.33707614896032       -0.36967044753513
C            3.43197270864070        1.03967454069913       -0.22790199703004
C            2.10020166135312        1.41299637561912       -0.01695469889756
C            1.49269192729272        2.66035133204906        0.12433771487428
C            0.12794716995198        2.73332787867488        0.17857925574688
C           -0.70517717942034        1.58566914191890        0.15435591989750
C           -2.08335042298706        1.83873333876551       -0.00437296860353
C           -3.13005466187489        1.00506494136942       -0.28479674249122
C           -3.15985869749057       -0.40309851966919       -0.25145462978836
N           -4.33280992139457       -1.00417493559417       -0.59388633171801
C           -2.14747992497114       -1.20849104173081        0.26168598727204
C           -0.83562958084167       -0.89559594921599        0.59349295356952
N           -0.17449928714268       -1.79366294514013        1.35264711566178
C           -0.09564577483552        0.29026558131893        0.22301706489463
C            1.29010636381719        0.21512950888336        0.03011638066564
H            4.35366357767306       -0.92608173792323       -0.58051526976437
H            4.26710791854354        1.71137651636002       -0.30259485441759
H            2.09443913897813        3.55787202487157        0.14213919145548
H           -0.35172310451408        3.70113337524046        0.20973840767136
H           -2.33107986177456        2.89448425687662       -0.02299866002169
H           -4.07192968848504        1.47800477263248       -0.53560791297053
H           -5.04800235843439       -0.46780431916985       -1.05102866563358
H           -4.37174201732513       -2.00375823073543       -0.68144163707679
H           -2.42658593557198       -2.24094406364728        0.44331168245905
H            0.80735192139944       -1.66148894053907        1.52966576387946
H           -0.53636467748098       -2.72489815135911        1.46685634660207
