25
 energy: -42.725540824958 gnorm: 0.000910559341 xtb: 6.6.1 (8d0f1dd)
N           -3.54719315302061        1.54812453270288       -0.74419458954121
C           -2.68988053973337        0.66709554979588       -0.18300053433220
N           -3.27782081098012       -0.40255458108747        0.37630537881161
C           -2.66697071227373       -1.53822492066604        0.59976463866350
C           -1.38627257966904       -1.96016657021598        0.25841057662177
C           -0.28109035866793       -1.16940634566207       -0.07909599709365
N            0.85742190082647       -1.81959153477703       -0.28562074603364
C            2.02878517575649       -1.17917673297555       -0.28089805562263
N            3.10884348660679       -1.92066322521646       -0.59728718655418
C            2.11809127042857        0.18343877788601        0.04849131149381
C            3.17887726106739        1.08286230814341        0.19033301339354
C            2.64013304709043        2.35597449091168        0.40606544003710
C            1.25765590354136        2.28192498623195        0.38848742671546
C            0.89596045046902        0.93474710472703        0.17470017207661
C           -0.34059793034366        0.31106339708421       -0.00220559609176
N           -1.43062974911098        1.04395199224793       -0.14173073319570
H           -3.20133498720902        2.45416064668906       -1.00603649226188
H           -4.53244567095778        1.40561737147292       -0.61132257189230
H           -3.30788924983334       -2.27175235175082        1.08262257767531
H           -1.16314220816395       -3.01113140365469        0.38916766742000
H            2.98072337875045       -2.90347745635797       -0.76222555748246
H            4.03171619158161       -1.54725739884451       -0.47712409745069
H            4.22804445362046        0.84956826237518        0.13967551493593
H            3.21678207495302        3.25040454343120        0.56119246011475
H            0.56723765007147        3.09327792311010        0.51923945049336
