30
 energy: -55.719079411933 gnorm: 0.000628038717 xtb: 6.6.1 (8d0f1dd)
N           -5.61421770151928       -0.83408859723447        0.54415483655552
C           -4.50314250337438       -0.60841990292205        0.36788819180510
C           -3.13180944714132       -0.33483560116693        0.16046817378930
C           -2.73854293139488        0.99666473385918        0.25843702750975
C           -1.48043732153620        1.53996834174673        0.05565805817958
C           -1.41701523006353        2.95573091223495        0.11792404148608
N           -1.41612621726460        4.10166351460184        0.16895403116812
C           -0.20955285358486        0.91915677733661       -0.13228803641601
N            0.76210119957526        1.80240826922920       -0.29781653508401
C            2.05087763534620        1.46056104246515       -0.28993444980172
N            2.92271174786219        2.46560463443148       -0.54150510116341
C            2.42452067121887        0.15600543814477        0.03793517299772
C            3.65131202555724       -0.47900526420093        0.30228578247478
N            4.87814207541124        0.10251951711226        0.37743768625207
C            3.38712578821642       -1.86503379830089        0.47160442653172
C            2.04574729232562       -2.09758323383742        0.32612403895273
C            1.38834358025557       -0.85547890196229        0.06453457454570
C            0.05427702549174       -0.51272599555070       -0.10928309461679
C           -0.95898002554582       -1.51250765211515       -0.31876860205742
C           -0.53267881311876       -2.78499300916908       -0.77226952457329
N           -0.28023622058437       -3.81968308263567       -1.20104337835985
C           -2.32805912911232       -1.43462385724866       -0.18620920656009
H           -3.52621478592844        1.70866097476615        0.48176362323046
H            2.50294374873892        3.32793244483861       -0.85293047625795
H            3.84448569612458        2.24675603986079       -0.87858673838336
H            4.92374859750152        1.08174140983671        0.60899323751064
H            5.62396658832319       -0.46545600731191        0.74724059700630
H            4.13604632027615       -2.60174105369751        0.69670473620462
H            1.56692060685350       -3.05059587804092        0.43454282528003
H           -2.86746201320963       -2.36057304827048       -0.36001553590532
