29
 energy: -51.997611032271 gnorm: 0.000794649443 xtb: 6.6.1 (8d0f1dd)
N           -4.98919312560205        2.52410021035736        0.43531528417990
C           -4.22114906639024        1.68092107536992        0.32170525919926
C           -3.27444090560921        0.63390696984370        0.17944639228267
C           -3.79281183628132       -0.66975827744930        0.24688152095056
C           -3.11811993080990       -1.83871146281890        0.02185011082101
C           -1.74905393356587       -2.07464024789479       -0.20291620040386
N           -1.45029545527239       -3.34219285845920       -0.56711883325250
C           -0.65382596648347       -1.16194137119485       -0.02519516962231
C            0.61636312949062       -1.72334465879218        0.15258254506086
C            1.79264081208466       -0.97428736036108        0.18013469751250
C            3.01287879708300       -1.65501318442442        0.39985613364906
N            3.96669651733743       -2.26474090974748        0.57826447181701
C            1.72779946117476        0.39603962718509       -0.02972019953886
C            2.71089834912809        1.40554584617654       -0.11198298693523
C            4.09490624032158        1.23286194118579       -0.04775341705636
N            5.23685615463680        1.11037616669369       -0.00414175271281
C            2.03720937415447        2.62601279831321       -0.28291459125674
C            0.66567053679831        2.40401264642820       -0.29990412383190
C            0.42551178282588        1.02887604684238       -0.15461370958718
C           -0.77164002141207        0.28220217265800       -0.08088417488435
C           -1.96421961549334        1.02348812273215       -0.03038316265049
H           -4.85667704294528       -0.74574549525789        0.43285398239608
H           -3.72917897626351       -2.73421141607248        0.00411796065555
H           -2.18992639195149       -4.00932190311273       -0.70156507464027
H           -0.52792497242218       -3.59655048747398       -0.87166769517541
H            0.71782845579746       -2.78348815667741        0.33310476506536
H            2.51995412246173        3.58072305779798       -0.38647877743839
H           -0.06542192092805        3.18136075706876       -0.42358571505341
H           -1.82313425427923        2.09508264047764       -0.08919702635034
