29
 energy: -51.998263965846 gnorm: 0.000437989985 xtb: 6.6.1 (8d0f1dd)
N           -4.77508738693878       -0.54525911833533       -0.22675860113689
C           -3.64759911436328       -0.75816955148215       -0.17254212190326
C           -2.28162256425244       -1.04917559056331       -0.11317363008591
C           -1.72360452038625       -2.34036128064536       -0.12367652942131
C           -0.33546903024800       -2.24463329915069       -0.04749255214902
C            0.50686373119985       -3.35778498161306       -0.05555793712859
N            1.17174164479522       -4.29732747492691       -0.06607871071876
C            0.01805057526070       -0.85672429771581        0.00239166972416
C           -1.22092957797183       -0.12653682483184       -0.03758334302419
C           -1.21033916946240        1.26956121566997        0.07789540912395
C           -2.41387454009391        2.00000702068966        0.17911619438393
N           -3.35184104630147        2.65183269454205        0.28942243288835
C            0.00625641948196        1.95836813281598        0.12060580774116
N           -0.00930739989938        3.33404405243352        0.19958177014709
C            1.24920056220129        1.25712750316519       -0.00334860609579
C            2.37496493052863        2.03106894682862       -0.29101746493287
C            3.72553095106282        1.71879029363830       -0.38048779879209
C            4.35598004700232        0.52682440126517       -0.08224654653845
C            3.74766100897768       -0.67936025565105        0.25904420560339
C            2.40717207573987       -0.98818569240728        0.27293750934163
C            1.25058958294114       -0.20357024345457        0.07625784587244
H           -2.28191159805754       -3.25650374119866       -0.18548344592798
H           -0.92255459294422        3.74312179169714        0.33419107100349
H            0.72335290547502        3.78703031384792        0.72015930468757
H            2.15300344475580        3.06573173303307       -0.52242546846845
H            4.36875414044898        2.53685457100468       -0.67910132727098
H            5.43690027315675        0.52354249455687       -0.13109975900227
H            4.41688884125706       -1.50003054354652        0.48270196705158
H            2.19115120273462       -2.03052481006575        0.47009919162770
