32
 energy: -59.176995111591 gnorm: 0.000753857098 xtb: 6.6.1 (8d0f1dd)
N           -5.62748531868605        1.31378916650495        0.10234155183595
C           -4.60540797091455        0.78490515214825        0.07441481797846
C           -3.36394249187452        0.11523891963435        0.03780280973072
C           -3.45803653399125       -1.26862034114960       -0.21649634715118
N           -4.67425285421166       -1.77430254742000       -0.51232377422077
C           -2.40038529090639       -2.19683653441430       -0.11238450668290
C           -1.07450311979675       -1.95450193813421        0.08297021819671
C           -0.34012043844170       -0.75188643004464        0.10681471227017
C           -0.85116319633170        0.59888163496121        0.08892263848801
C            0.06432754230475        1.65500446469186       -0.06018346664388
C            1.44197851426913        1.48268573343539       -0.12235761226027
C            2.26642302357234        2.61051210291921       -0.31614891248295
N            2.90248734022635        3.55336994002063       -0.46834980033531
C            1.97350651627826        0.19631077363057        0.01552851931470
C            3.25198244311420       -0.36850125924287        0.03869658264148
C            4.50657568516062        0.22635394306403       -0.01499017774298
N            5.57701003853294        0.64898407940820       -0.04323434159584
C            3.02175494006167       -1.77668071332210        0.15526013924071
N            3.98023196357801       -2.72074718593823        0.18597504752537
N            1.72024929226210       -2.08644288803166        0.19623503605699
C            1.05351642332030       -0.91836589723618        0.12246043216785
C           -2.22820152923698        0.93561316577003        0.27414420858136
N           -2.51116506932866        2.19114015200107        0.67985026851594
H           -5.48551083471758       -1.18117468778902       -0.55777565756932
H           -4.79002919795700       -2.76370771284179       -0.64029661823164
H           -2.69892703429006       -3.23398714600783       -0.20122245309956
H           -0.42882977059095       -2.82123600918497        0.15843242331899
H           -0.29267318978389        2.66550821116689       -0.20246958451842
H            4.94165726282347       -2.44434107223659        0.27619016010045
H            3.71502042174092       -3.67035795223639        0.37428375981442
H           -1.77968845746154        2.83196817952442        0.92840637031627
H           -3.46686732782820        2.49189281015159        0.77326949704152
