30
 energy: -54.924055505212 gnorm: 0.000694018918 xtb: 6.6.1 (8d0f1dd)
N           -5.61164571610886       -1.17072079094371       -0.00552620017860
C           -4.47720695730584       -0.97537063811639       -0.01144711548598
C           -3.10000231714202       -0.70783619828672       -0.01516702753194
C           -2.23014712121215       -1.80545954486761       -0.10129852546975
N           -0.93278904607781       -1.88851733158205       -0.10337053572184
C           -0.03354217440262       -0.89103194656249       -0.04195482578145
C           -0.30111010842793        0.55562682767001        0.00033201698629
N           -1.48193801386714        1.16649810446137        0.05276024093074
C           -2.69947283481270        0.66388197133063        0.06362345034276
N           -3.66368026408145        1.59934400921993        0.15182098281664
C            0.79262623883104        1.44271403368513       -0.02412846103764
C            0.51827545029903        2.82241550171683       -0.05536948708193
N            0.36288119190247        3.96097228546940       -0.09369818454259
C            2.14767757394106        1.03134051995161       -0.04404814831580
N            3.13588259137786        1.96421816182375       -0.08790396760884
C            2.39807514782717       -0.33862128294699        0.01698239777418
C            3.58758831419205       -1.09997479639447        0.08049382243300
N            4.86624704102226       -0.62850349084998        0.17040147938882
C            3.23043090884954       -2.47041965455104        0.02079278695786
C            1.86431932291491       -2.57894670794323       -0.03973975106442
C            1.30273548273415       -1.27114675304899       -0.02716370574782
H           -2.71636698705769       -2.77694785079642       -0.17326329645169
H           -3.37787712473836        2.56266587283807        0.19045681993545
H           -4.63781566816691        1.35055149617768        0.15700429095845
H            4.03005423327099        1.69264908748962       -0.45995961938243
H            2.85348139993840        2.91976336537699       -0.24931108011871
H            5.00487936144344        0.24963098491671        0.64566954331067
H            5.57154174159027       -1.32312135302613        0.36478784520647
H            3.93626068610224       -3.28081118840508        0.03954594062305
H            1.28755335136567       -3.48211655850601       -0.08023134194226
