30
 energy: -54.924415193328 gnorm: 0.000739878150 xtb: 6.6.1 (8d0f1dd)
N            2.88060260360976        3.15614792415401       -0.07200706881884
C            2.49560762733736        2.07272697412091       -0.04608947123300
C            2.12365504432579        0.70779075345132       -0.01945299311873
C            3.18401172668418       -0.21218152510777       -0.14185219966340
N            4.42399953922309        0.28620465308814       -0.35950367175201
C            3.07306692628061       -1.60773708570260       -0.02635140235120
C            1.94153839912294       -2.36224172915595        0.16599136467983
C            0.59167920607680       -2.00200242089150        0.19957841540863
C           -0.23454457755118       -3.12339439191407        0.43873876586797
N           -0.80454795969019       -4.09192816977485        0.67838054563440
C           -0.01461239875111       -0.72613998052122        0.06084250189828
C            0.72043940798918        0.53213430851146        0.10426061442552
N            0.10747943062977        1.70293396464688        0.25799046332063
C           -1.21724033816738        1.83133372111752        0.24592004039787
N           -1.69384329639393        3.08187218279757        0.45571866094757
C           -2.01879187802490        0.72742301770920       -0.03910754847317
C           -3.38710415759577        0.49885951436364       -0.27765068423468
N           -4.40128050531361        1.40494714992422       -0.32653705189696
N           -3.63412535033570       -0.82178697776652       -0.44950365910805
C           -2.48331950925441       -1.46210170713266       -0.32937143222891
C           -1.39949642791292       -0.57700046374856       -0.08470334870035
H            5.21897969728580       -0.32653544466938       -0.38205012837236
H            4.57225193257245        1.28079614827502       -0.38588085595747
H            4.00851097395046       -2.15066741987506       -0.07563390060641
H            2.11409938318680       -3.42655011139940        0.28697790770825
H           -1.01140919472587        3.76008588407082        0.75546312564867
H           -2.64187781528192        3.19711991179043        0.76994708662712
H           -4.18068914042692        2.33582258938263       -0.64254029468341
H           -5.27297898795154        1.02466476814805       -0.66298456378179
H           -2.45450938919882       -2.52642077749332       -0.45565110728450
