28
 energy: -45.878555673040 gnorm: 0.000660310588 xtb: 6.6.1 (8d0f1dd)
N            3.65686534723904       -1.96556433069043       -0.53606052353873
C            2.69731680503579       -1.03946944100994       -0.22419011679892
C            3.11754920438399        0.27511602230528        0.01418685047695
C            2.27104518028722        1.35547399785696        0.26463569478195
N            2.83560292865970        2.56341608018315        0.56641211016091
N            0.95338815774795        1.43182624002646        0.12183225289977
C            0.06305837981404        0.47258431681534       -0.01868069373803
C            0.32411496715651       -0.98808040034094        0.11983450916533
C           -0.75075077381863       -1.84101094319930        0.35076781021761
C           -2.08312303607591       -1.43065906347869        0.29087957751097
N           -3.08415385946764       -2.31194529723548        0.53689770599533
C           -2.35566427617286       -0.09009030507498       -0.03589086068593
C           -3.54997937834476        0.62085103706680       -0.20339012170188
C           -3.22855633146138        1.95434891060465       -0.47719167474125
C           -1.85227149222656        2.10127299754588       -0.46937016183292
C           -1.27574992496070        0.83982444132098       -0.19974161891079
N            1.50053137531788       -1.57650684428315       -0.06185822378701
H            4.53345122366858       -1.65721397591936       -0.91672644794634
H            3.31741169568057       -2.87032699383679       -0.81419917423055
H            4.18321138079829        0.46606136978131        0.00603560450100
H            2.19818322809853        3.29092442531535        0.84077596302579
H            3.77742951367628        2.60147637191324        0.91211230829374
H           -0.52506100512525       -2.88461598411231        0.51753461912749
H           -4.02892458069128       -2.04851843413265        0.32035889152497
H           -2.87040056979914       -3.29002179766219        0.62013166249174
H           -4.54875685310744        0.22590444406315       -0.12750143798004
H           -3.94356211768332        2.73682660429895       -0.66134075307249
H           -1.30062599272894        3.00435725607796       -0.65018043180893
