27
 energy: -53.329875713359 gnorm: 0.000604284276 xtb: 6.6.1 (8d0f1dd)
N            5.79208440924601        0.92456141114371        0.89440615055585
C            4.66968560738049        0.89488281282307        0.66175374909482
C            3.29362249600780        0.86643886763379        0.38005771518260
C            2.51052710966412        1.98178024771365        0.05555186384711
C            1.18756955407581        1.53898332565484       -0.10310732618689
C            0.03001866962642        2.20191250902610       -0.44959503165312
C           -1.18200572512015        1.50463207840049       -0.43564770626135
C           -2.33920041845435        2.22332070628288       -0.81799554706609
N           -3.20869849362625        2.84360997617878       -1.23488865317028
C           -1.25788670515568        0.13307571546505       -0.10807806009899
C           -2.48998675122281       -0.39938689197418        0.34396405011006
C           -3.49869435086025        0.49618607325663        0.78404689353452
N           -4.32844797716391        1.13353740415309        1.25261670496627
C           -2.80324055530786       -1.74620046183125        0.58100631181863
N           -2.23742408916308       -2.79941748731687        0.05544295442121
C           -1.06181043436880       -2.89732819244766       -0.49987075553599
C            0.02880794084948       -2.02016745007535       -0.36607044135098
C            1.26076266830140       -2.60924755238254       -0.74222043589810
N            2.20220626395169       -3.15588816604099       -1.10263957170572
C           -0.00954171932850       -0.63836486880282       -0.06143434986445
C            1.17247612196791        0.09766864025422        0.09858349399072
C            2.48866063391164       -0.28694195912618        0.39843049017282
H            2.86036603291888        2.99129343418782       -0.04944002568210
H            0.03264256594745        3.25599348931489       -0.68593654707699
H           -3.69535569502937       -1.95796983153584        1.16090219875454
H           -0.88667271627665       -3.83608069104905       -1.01547177545558
H            2.83846003062934       -1.26929515490517        0.65152311695835
