27
 energy: -50.967454517082 gnorm: 0.000593738128 xtb: 6.6.1 (8d0f1dd)
N           -1.47985531506826       -3.93349414435312        0.41019299089193
C           -1.05863165943433       -2.87485183985348        0.25875472499593
C           -0.45513962799677       -1.61219589859223        0.11582302652754
C            0.97056170243147       -1.55943435731611        0.10444097076842
N            1.68825615849430       -2.70564056691232        0.23934501689751
C            1.54812926567190       -0.31641323148414       -0.11471615706013
C            2.87685285269728        0.18833969011435       -0.21464295824593
N            4.02703300752496       -0.52469666814350       -0.25176627490044
N            2.91393411410225        1.53304276981906       -0.22593145866770
C            1.64442610420647        1.95778471175014       -0.15403365425541
N            1.26320739920608        3.23119431232371       -0.13564009250130
C            0.72302731823911        0.85933900323195       -0.11698112101614
C           -0.64990227263010        0.84588623268406       -0.01136450782483
N           -1.29272704012670        2.00004921796593        0.29049798707636
C           -2.58218675622831        2.13324948017783        0.45264931074042
N           -3.60478360650445        1.43194217069367       -0.00149507950759
C           -3.47864127549520        0.22238371849196       -0.52047735758299
N           -2.55269768978059       -0.68371622021799       -0.38303944030140
C           -1.27163304642809       -0.48284520999002       -0.04483709991548
H            1.18418749097742       -3.53610957774946        0.51038082494344
H            2.64810280195353       -2.64001438302463        0.53090008129598
H            4.85384140161842        0.02181920034758       -0.43778835802709
H            4.00348274720882       -1.44779010419259       -0.65256264153297
H            0.27777290512458        3.38865205339999        0.03971370188674
H            1.94497714565435        3.96642859879704       -0.06901127351494
H           -2.86810485225794        3.05512694770764        0.95753705888714
H           -4.34870408466153       -0.11658162107519       -1.07900622275658
