25
 energy: -43.514285500032 gnorm: 0.000328732859 xtb: 6.6.1 (8d0f1dd)
N           -3.07236185299401        3.06561928804190        0.00704080752730
C           -2.16138991741997        2.36573170052244        0.00453227041330
C           -1.00780209237380        1.55312722947841        0.00132606220964
C            0.22088460698467        2.22782799404788       -0.00017952327924
C            1.37166126203898        1.47941849147215       -0.00324084966180
C            2.76279854728571        1.74421924759051       -0.00556296501592
N            3.48640354675930        0.63385932835412       -0.00831433533456
C            2.62178742623217       -0.41077882687196       -0.00793722342738
N            2.99827279371406       -1.68782117138931       -0.01022537282998
C            1.27056051686983        0.03934251345537       -0.00479617342545
C            0.07480202515174       -0.66299140882882       -0.00338825997980
N            0.21178545922756       -2.01204795017801       -0.00534011205058
C           -0.71149789314769       -2.93255322463572       -0.00466531160466
C           -2.10593351958610       -2.86065003838962       -0.00177899812341
C           -2.87240810255488       -1.70181839880549        0.00115263280875
C           -2.44942924131648       -0.38879972137020        0.00186597877147
C           -1.13956833577869        0.13863930958269       -0.00008822485446
H            0.23539212329673        3.30831987194595        0.00110618420081
H            3.24290135731529        2.70558683813211       -0.00531108780349
H            2.24896036212536       -2.36792867388717       -0.00966797741422
H            3.97245579107806       -1.93236699451735       -0.01244599897898
H           -0.29073242460633       -3.93736660672226       -0.00679741750006
H           -2.63396702613046       -3.80389662936004       -0.00187833539170
H           -3.94623108533741       -1.84544792093952        0.00311116966143
H           -3.23633210593365        0.35595118947195        0.00431208998296
