27
 energy: -46.940727552569 gnorm: 0.000833646590 xtb: 6.6.1 (8d0f1dd)
N           -4.98629590777182        0.07263521518344       -0.23416646381921
C           -3.87661686960197       -0.20815394596325       -0.12934868430701
C           -2.51262428295192       -0.53132767729070        0.00980338008635
C           -2.21837824104257       -1.81009232571251        0.51961215498364
N           -1.12077267147064       -2.48255832211199        0.35390086603981
C            0.04515776510495       -2.05267847724220       -0.07891639112252
C            0.59670110205197       -0.76906181613294       -0.04706442561129
C           -0.17425670963953        0.46130698994902        0.03348964548047
C            0.49454639863231        1.67608351127524        0.26257009759589
N           -0.21708842820981        2.87736363538476        0.43226144026509
C            1.89420395551438        1.75289871308048        0.30342339826036
C            2.65177713015310        0.63521096773906        0.07191356024265
N            3.99823134378057        0.51259762768723        0.02864305029416
C            4.22750910425961       -0.77953542170355       -0.15374803247457
C            3.05571664770678       -1.55803421971463       -0.23073149596081
C            2.00396962744061       -0.65988327242507       -0.10601541202346
C           -1.57614229964483        0.47365201050284       -0.32027731817968
N           -2.04650902592083        1.55361722734532       -0.96467624170411
H           -3.02451839040117       -2.35878214198474        0.99570354348097
H            0.71533605499749       -2.86091620896836       -0.35057605290570
H            0.38171714053418        3.62795162989376        0.74937093580463
H           -1.04071631495774        2.80039190629480        1.01449048605627
H            2.37027369931005        2.70323434047889        0.49712566095283
H            5.23796950772712       -1.14196305950503       -0.23008322609717
H            3.02002276557075       -2.62226629520829       -0.36067034281026
H           -3.02499570694361        1.61440506611052       -1.19581357022105
H           -1.44331577502907        2.34676008613868       -1.11973593570570
