30
 energy: -50.120465523891 gnorm: 0.000634646421 xtb: 6.6.1 (8d0f1dd)
N            1.65591943856532        2.95069362137363       -1.22561256835021
C            1.60830417364683        1.91336905577499       -0.72550598746660
C            1.68774454778493        0.60340227208602       -0.21425010166889
C            3.00839124064591        0.16118394136271        0.00136656664692
N            4.01040648222594        1.08076138741939       -0.10962270677826
C            3.40751070245045       -1.13156070179497        0.38396515225179
C            2.64968692623806       -2.27954910548300        0.43477595909551
C            1.30481844550560       -2.46002012687918        0.17018456622736
C            0.28460258456268       -1.52462021156332       -0.04584882869252
N           -0.90682379522518       -2.09290769941697       -0.26386925000659
C           -2.02654071899204       -1.38268171151344       -0.28934614974462
N           -3.17281787388543       -2.07388651509062       -0.56554297486930
C           -2.02169945333021       -0.02312211767336        0.03223618514611
C           -3.02333574233034        0.93371147682838        0.26021250009814
N           -4.38246554700063        0.71754726423784        0.26449608456260
C           -2.38459694399573        2.17613007609365        0.47236581420895
C           -1.02171317208082        2.01316271512020        0.38010036418912
C           -0.74199519415928        0.64517416844906        0.11489242389285
C            0.44390643215148       -0.07405359451508       -0.02226081598546
H            3.81059373485822        1.98715633044558       -0.49818888009863
H            4.96340028611960        0.76459760344541       -0.12447661184422
H            4.46378427602312       -1.23687276572393        0.59984487873051
H            3.19517474251176       -3.18104842542769        0.68810850016954
H            0.94024827666489       -3.47863874870924        0.18746344089250
H           -3.02121472857673       -3.00414009223830       -0.92395197707762
H           -3.93369397880602       -1.55727218899946       -0.97449140465342
H           -4.67840935456465       -0.20051074855293        0.56052143377354
H           -4.92632986767261        1.46745266292363        0.66505772674502
H           -2.89707620499910        3.09668956489361        0.68721993277507
H           -0.29628226943007        2.78791348852383        0.53542070283003
