31
 energy: -49.844071726115 gnorm: 0.000643630887 xtb: 6.6.1 (8d0f1dd)
N            5.15867102293558        1.41718659237566        0.21155027688947
C            4.17644540100388        0.81647070913938        0.14264043249240
C            3.01139703179151        0.07092260973757        0.03556307946926
C            2.94291941228995       -1.32472125601447       -0.18516790729427
N            4.02721846041023       -2.16083188949534       -0.24150451119400
C            1.59942835389378       -1.71085610732892       -0.25806310502918
C            0.79385161209643       -0.57795360633022       -0.09836648549491
C            1.68287186323956        0.55069683183800        0.09034592815575
C            1.16021017772692        1.80698101518728        0.31174156419591
C           -0.21068212253234        1.98723271419167        0.24826411385361
C           -1.11779036715946        0.94259394456361        0.01999552275366
C           -2.49396967117969        1.29356356365579       -0.19140769213760
N           -2.75269028621279        2.60704661217184       -0.47481458957858
C           -3.62574231776220        0.49525028648063       -0.07357884607040
C           -3.76408599791242       -0.87170451186593        0.15158426032853
N           -5.03383568373618       -1.35845556411205        0.28651282084657
C           -2.72207271897969       -1.81134215291471        0.12261281884607
C           -1.37983065221058       -1.58755040781555       -0.03788545466938
C           -0.61163203974272       -0.41148130253229       -0.05790624017205
H            4.91822699907058       -1.72168939520240       -0.41140613942097
H            3.89274819663428       -3.05491510334673       -0.68411379903120
H            1.28254772437310       -2.72400230048680       -0.42929137454871
H            1.81064176192850        2.64589110602970        0.51472385010984
H           -0.58643099154004        2.98188127440599        0.43724330243174
H           -3.68849226353269        2.85422346780084       -0.74772469056891
H           -2.01383445534248        3.17613024522059       -0.84801063978446
H           -4.56591125773517        1.03083413348236       -0.16878808466126
H           -5.15734841961899       -2.31027591184061        0.58293437741660
H           -5.78782013506050       -0.72077522019904        0.47126242112283
H           -3.03153613673168       -2.84567942142183        0.21526332605541
H           -0.78464978510460       -2.48955039577360       -0.08203192591212
