31
 energy: -55.449874891922 gnorm: 0.000630672454 xtb: 6.6.1 (8d0f1dd)
N           -4.78699018166607       -2.05041764454745       -0.65161508765130
C           -3.76767503864521       -1.57185786797306       -0.42684664654843
C           -2.51533619623762       -0.97510766954215       -0.15101866545320
C           -1.50744049727866       -1.85537945615939        0.21582750027631
C           -0.12523393092885       -1.67851920234207        0.31584313605511
C            0.64439186418477       -2.87163305818851        0.41463577768726
C            2.00292339301994       -2.88603782998909        0.28328924620738
C            2.67339114162309       -1.69067288176573        0.00729069009318
C            4.00671128510721       -1.40985985434754       -0.27810259318262
C            4.12552105630604       -0.04161673733034       -0.51338732159447
C            2.88199325261743        0.57670749900052       -0.33722578263308
C            2.62528201994580        1.92000512535099       -0.59434850333282
N            2.40267676164152        3.03231992560608       -0.79871159788268
C            1.93238472941310       -0.44089568047325        0.00379149708035
C            0.56177985051477       -0.41735453693793        0.25287348419232
C           -0.08848213046078        0.83421961033644        0.58300391607643
N            0.64224501516354        1.70662176123870        1.29214622229597
C           -1.39552119684543        1.21956784279413        0.24020572008641
C           -1.70391506866134        2.58663384606280        0.42863779646228
N           -1.98671647760267        3.68850625949675        0.58942308180988
C           -2.46340957443571        0.43765002740230       -0.25931167894329
N           -3.54194016066928        1.07419005827723       -0.75663809649593
H           -1.83793769793998       -2.88501941551305        0.30430908910803
H            0.11047137625884       -3.79915362205626        0.55893431572804
H            2.55478602076126       -3.81188451074642        0.34979000005351
H            4.80209167359468       -2.12878044051161       -0.33742451235322
H            5.02518597667524        0.47537648516965       -0.79597647238317
H            0.32604542883388        2.65523859944374        1.42214167999743
H            1.61196565832095        1.50888374142087        1.47846342868353
H           -4.36209347687162        0.55098462312278       -1.01557155137856
H           -3.58235918073852        2.07983328800122       -0.76540347256102
