25
 energy: -42.696893375761 gnorm: 0.000661956036 xtb: 6.6.1 (8d0f1dd)
N            2.59773701509486        1.68614865226805       -0.75979370860344
C            2.11189745456219        0.53721138224181       -0.26360805095478
C            3.06699015087978       -0.45623576310168        0.04706067087522
C            2.83615252377928       -1.77111365244742        0.37791802018227
N            1.76554094864995       -2.49494853129921        0.10483686653724
C            0.57879201517662       -2.07518100704845       -0.20842434813128
C           -0.01947326687715       -0.80245182173645       -0.03620208721931
C            0.70622692267514        0.45330486625062        0.00475470862003
C           -0.06652287076081        1.63429516420329        0.17698680154355
N            0.54491620777978        2.89707325612027        0.33664635855505
N           -1.38446320867137        1.69013950984137        0.19801773148121
C           -2.07103636622080        0.57488604264298        0.06583024500762
N           -3.40039116955494        0.45340887977805        0.01776604184033
C           -3.63225282423853       -0.86269724809456       -0.04754135412941
C           -2.47400466507183       -1.64473172848657       -0.06347545649378
C           -1.41476251807488       -0.73759775926456       -0.00879295626307
H            3.58398214481523        1.78801848292179       -0.92540318997970
H            1.97288603756716        2.47258801331832       -0.88511958966135
H            4.09839627596289       -0.12240182954769        0.04721255220152
H            3.65753005913779       -2.35034069482333        0.78645877951488
H           -0.08696754550597       -2.86298381631664       -0.54807647479862
H            1.20787556359623        2.92944554089356        1.10236836289581
H           -0.19020378435069        3.58159520748747        0.47808429852409
H           -4.64665925093389       -1.22013493861256       -0.08836473249362
H           -2.43469341311610       -2.71685801608859       -0.09302344515027
