28
 energy: -51.477989482359 gnorm: 0.000818110557 xtb: 6.6.1 (8d0f1dd)
N           -5.91193445068711       -0.18564303908441        0.51104747998668
C           -4.80675125047289        0.08243820343471        0.34252534269497
C           -3.44805031985812        0.35106726299633        0.15544721138048
C           -2.85241623528589        1.59896363844876       -0.03629453683596
C           -1.46714816018427        1.40692245205153       -0.13591746853723
C           -0.40122652725541        2.26837662950430       -0.33885256299380
N            0.84557723227768        1.85119314279109       -0.34034357908344
C            1.14336755842555        0.55016734248120       -0.21040180020338
C            2.52126876444284        0.31444694801108       -0.05083309241277
C            3.32993596492525        1.47008164176205        0.00462808028768
N            4.07050101974480        2.34685116225112        0.06539626086975
C            3.20963596056761       -0.92377794547810        0.14524060690723
N            4.46157384779087       -0.87414996840376        0.64023707254596
N            2.80022490453868       -2.13903280483908       -0.17170084313910
C            1.58429954246600       -2.50418967661117       -0.52806927648619
C            0.37507029958924       -1.84867722149622       -0.44963816222686
C            0.11381305035850       -0.48711426262499       -0.18619038798978
C           -1.19165769631593       -0.01224986135803       -0.03734501597388
C           -2.44179187347287       -0.65684551347097        0.16989703817108
N           -2.69421519761460       -1.97302028159508        0.36703387449123
H           -3.36900823803479        2.53872464645476       -0.08941522016789
H           -0.54007912390667        3.33261222612659       -0.47872516339337
H            4.98415114129014       -1.73224971786720        0.68036303763711
H            4.92347341788608        0.00662796116095        0.79151348151123
H            1.55547890369972       -3.53523894324336       -0.87068514678697
H           -0.49075578261024       -2.44593349862344       -0.70193774026327
H           -1.95466651927121       -2.56984004291744        0.69895185603143
H           -3.63293926143305       -2.21854024776113        0.64295828597818
