28
 energy: -50.696161100375 gnorm: 0.000563016901 xtb: 6.6.1 (8d0f1dd)
N            3.34875185427352        2.74309775233632       -0.15402268666557
C            2.63896861129673        1.83750615994350       -0.12977305917071
C            1.87131099495477        0.65844153388429       -0.09646093469964
C            2.58832912966064       -0.54344703745232        0.18160414510817
N            3.87759284203466       -0.42347161590979        0.56212106755657
N            2.17561657327617       -1.79172434187414        0.07004788145028
C            0.93638497566689       -2.20523231950054       -0.18578193944336
N            0.86810201152634       -3.52832073613307       -0.46963361144267
N           -0.23543067457449       -1.60529655191954       -0.09130457759489
C           -0.47865172434182       -0.28769000681412       -0.06402655820195
C            0.47471644634591        0.81546442747415       -0.23321152316315
N            0.07385615081029        2.07347282272606       -0.42342903058855
C           -1.20249251124817        2.41561722548794       -0.36254313024015
C           -2.18531689427461        1.50322156612183       -0.03886817290847
C           -3.59740802101312        1.55001236451336        0.10471596618270
C           -4.07154947957663        0.26996827236967        0.29998894005845
C           -2.98274758799437       -0.63172303702168        0.29459309332636
N           -2.97191338248815       -1.96304215830538        0.44721461162654
C           -1.79428534350445        0.12902322761871        0.09522631439699
H            4.41483775857678       -1.26225963448679        0.69042501394420
H            4.32500093335347        0.47683964050155        0.57853493217257
H           -0.00669913480141       -3.94118886566816       -0.73401367911313
H            1.72438150680936       -4.04151491519785       -0.56711870271822
H           -1.41400162487031        3.45655524373373       -0.57128307295656
H           -4.19339550464718        2.44279167997170        0.05293870885759
H           -5.09974800775547       -0.00994711388339        0.44103599983270
H           -3.82229040763044       -2.49847241197328        0.44315865151120
H           -2.06508101016475       -2.39420048534255        0.30631863648236
