28
 energy: -51.465939822350 gnorm: 0.000709632942 xtb: 6.6.1 (8d0f1dd)
N           -4.56677074857369       -1.90656715153101        0.57934890907842
C           -3.58231911925285       -1.34457982625786        0.39696104337880
C           -2.36090223700757       -0.67230381524849        0.16166827450395
C           -2.37619152858195        0.69466725080697        0.37057024015012
C           -1.40754414708526        1.62304616080837        0.00047720494841
C           -1.81031740049847        2.97780929510682        0.03902442793760
N           -2.11983373210862        4.08321701029559        0.05359145566036
C           -0.07462276763469        1.38178420138209       -0.40455989860124
N            0.59473488207968        2.38971492751183       -0.97360492091063
C            0.65870613244787        0.17000352972313       -0.13232494688206
C            0.09480328909964       -1.14978384964122       -0.16751929498205
C            0.99019548097414       -2.24680967804643       -0.03743325500613
N            2.28656573037262       -2.17794341953060        0.08305378388711
C            2.84043698254783       -0.98118613810556        0.13386146956299
N            4.13581079050006       -0.71214819371893        0.25814501924072
C            4.22150432403092        0.62128765215612        0.35437974858516
C            2.99701836263035        1.27392870498463        0.23860152526255
C            2.03916885422008        0.25981117313346        0.08145521810404
C           -1.28393003349428       -1.47488189060283       -0.31813549624399
N           -1.61963004464117       -2.66783133391516       -0.83768091370739
H           -3.30357343420373        1.10685304754582        0.75120670361404
H            1.55862683679692        2.25904093969312       -1.23776512326203
H            0.15809159703701        3.28828147672621       -1.10435959699325
H            0.59470094573166       -3.25139728325109        0.04464187558130
H            5.18236429095361        1.08364284539612        0.49751866201644
H            2.85242617854286        2.33261728553591        0.35669767747428
H           -2.57779485360688       -2.97890342905096       -0.80486448264384
H           -0.91459180727496       -3.30774589750655       -1.16038002325303
