33
 energy: -58.080781719049 gnorm: 0.000987005166 xtb: 6.6.1 (8d0f1dd)
N           -5.06843193685199       -1.64745210933173       -0.17624593379525
C           -3.99103509870312       -1.24071579983283       -0.11010526231746
C           -2.67939869980126       -0.75159575874618       -0.01454380127612
C           -1.67473135916929       -1.72012320825838        0.26910384398206
N           -2.11897982278190       -2.99856776531003        0.46793832181771
C           -0.30345094863830       -1.53778474496735        0.27862883107311
C            0.49583276761371       -0.39451882191022        0.10217728053577
C            0.01332327652260        0.97562793693321        0.14858916637138
N            0.83540033883063        2.01735456852351        0.30934660973658
C            2.14787344586301        1.86042165338936        0.33861201437728
C            2.73502972953574        0.63722984602191        0.12407192615517
C            4.09186140253122        0.19858777848345        0.00998310312302
N            5.18289149538114        0.98857531970544        0.16151634077297
C            4.07635740268271       -1.16955896050273       -0.24484471196316
C            2.75037056486024       -1.62130942194374       -0.28495259017998
N            2.38054234393534       -2.91224523154691       -0.54614435350811
C            1.88508221761688       -0.51613632097334       -0.02778677837284
C           -1.33505308799436        1.38136021107466        0.00066373635303
C           -1.48866015102095        2.78633614264541       -0.03092975810461
N           -1.71204423625427        3.91436905732026       -0.06671042676681
C           -2.52817776789591        0.64331116277675       -0.16345141209214
N           -3.64597806166328        1.34994173561140       -0.46315634795991
H           -3.10225499410757       -3.16325230291593        0.59960228774438
H           -1.47915174861057       -3.68560515537853        0.82452930482577
H            0.25443681456721       -2.43911782349951        0.49985586016826
H            2.71431694950154        2.76790220815055        0.51143706256803
H            6.08118501002473        0.62915064500074       -0.11084117400555
H            5.05788390319767        1.98540963475623        0.14435885944537
H            4.94205331885220       -1.78633883699484       -0.40584091171147
H            3.11450787525680       -3.50258503301487       -0.90735535825003
H            1.48211503218344       -3.04153555572148       -0.98610389879181
H           -3.60674113992076        2.35485132756393       -0.48338187147329
H           -4.54015280804328        0.89077981489200       -0.49121275338163
