31
 energy: -54.644178318608 gnorm: 0.000460100998 xtb: 6.6.1 (8d0f1dd)
N           -3.70814057817681       -2.69527147553040        0.37720041320626
C           -2.88541574318735       -1.89748061959688        0.26920866414050
C           -1.94748939609651       -0.85868798634231        0.15671789873415
C           -2.44165188609999        0.46850802691639        0.30278401639751
N           -3.73261283814800        0.67702297429703        0.64506356108088
C           -1.55612973642926        1.50396242772943        0.03811837766712
C           -1.76064431328826        2.89616911774606       -0.05317845890683
C           -0.57329016007231        3.49009981038625       -0.42081966851200
C            0.42791443218381        2.50575789237678       -0.54142757476840
N            1.63971350503575        2.76654462766477       -1.08719627369385
C           -0.15760523626149        1.23923080347448       -0.21661263605955
C            0.36438835507279       -0.05330188357167       -0.10023679342195
C            1.74076274577744       -0.27522131955734        0.18169157190421
C            2.44017252921601        0.78849738683286        0.76491084044386
N            3.05723265259617        1.61597475520472        1.28130372082992
C            2.50484410093496       -1.47388464053344        0.06859716184637
N            3.79199822026494       -1.44793581259540        0.48898386782448
N            2.17189546113994       -2.62139799818649       -0.49811884475242
C            0.94816484480064       -3.02666933631639       -0.77849935343400
C           -0.27712495005913       -2.46725596385089       -0.49240750220737
C           -0.60014761656266       -1.14651492281216       -0.11381860365380
H           -4.10687708722897        1.60761977166039        0.62322453133518
H           -4.36701343612223       -0.10192880565160        0.69549864613573
H           -2.68860127976641        3.41134502490455        0.11847213773905
H           -0.41817847895651        4.53689342398564       -0.60681795220400
H            1.90952786251415        3.73387260779756       -1.14955086813599
H            2.39049770167918        2.10379431074463       -1.00798637726450
H            4.31088357918720       -2.30587572570154        0.42660087944887
H            4.16891407227155       -0.66514018850148        0.99343030199935
H            0.93868822314812       -4.01064752237057       -1.23844234490765
H           -1.13123070786606       -3.11432065910313       -0.65218483391130
