31
 energy: -53.845417750018 gnorm: 0.000825162127 xtb: 6.6.1 (8d0f1dd)
N           -0.34264329161809        3.46471613459621        1.18249864689800
C           -0.76343609344486        2.46086049026578        0.80195678953858
C           -1.33325313734555        1.25864055647688        0.35785431650096
C           -2.71946147887815        1.21018673161356        0.55201685944968
N           -3.60519113667600        0.30771348300625        0.22478142306532
C           -3.26972140354899       -0.89418069464245       -0.28356810880092
N           -4.28466231269119       -1.50911456335807       -0.94033604390255
N           -2.17310564697310       -1.59259605839888       -0.14577405179639
C           -0.92286970621796       -1.19451609637691        0.10796199039432
C           -0.00234160884917       -2.20248477691772        0.36131690984087
C            1.37814383729518       -1.99437019115431        0.33437255750330
N            2.23787122796951       -3.04282064500603        0.57978272886125
C            1.84009293322004       -0.71974931568279        0.01322506577899
C            3.14818582404746       -0.19132730345542       -0.12301163761436
N            4.32063819766867       -0.86057277506972        0.12017482656135
C            3.04632903019060        1.12947476392184       -0.57037976225024
C            1.70363404845222        1.48743077565768       -0.65336977507191
N            1.26045127032404        2.62938368699425       -1.22928611340800
C            0.90884285340149        0.35719187280319       -0.22948404905206
C           -0.44887493873000        0.18840938777316       -0.00448921293498
H           -3.16083652284862        2.09740844102802        1.00285637453819
H           -5.20237307180570       -1.10950738404203       -0.85562829182868
H           -4.18643030913353       -2.48492669823544       -1.15567550827875
H           -0.38785837584626       -3.20048658541749        0.50670407953686
H            3.10609456640711       -3.02652562665282        0.06827347983219
H            1.79670676271651       -3.95018405275919        0.60376828487535
H            5.14023168783163       -0.27235423864235        0.15625929894078
H            4.28606889400416       -1.55312153092209        0.85296710912094
H            3.87487889086932        1.77173774778798       -0.80727417060828
H            0.31976650981505        2.93879200210207       -1.05329322574084
H            1.93925227419527        3.36136792470007       -1.36033827505533
