29
 energy: -51.198936589429 gnorm: 0.000871032342 xtb: 6.6.1 (8d0f1dd)
N           -6.09926868412126        1.22734693363083       -0.17002936490778
C           -5.01356986630271        0.85428929504973       -0.10738962479138
C           -3.68611218422088        0.39898087377805       -0.03188721136438
C           -2.66818523891664        1.26416871853585       -0.47567042932826
C           -1.31142042657436        1.09913222317216       -0.38206891263935
C           -0.55326621508115       -0.04869507509562       -0.01970358823194
C           -1.15674600817609       -1.37151097994544        0.09525446340830
C           -0.35623460779564       -2.50467363789803       -0.10037384412415
C            1.01922141912936       -2.42828385939023       -0.20874643041147
C            1.63634278089005       -1.19849612772145       -0.07417909083782
C            3.00172139944594       -0.81758653378251       -0.06462569929785
N            4.06998103775695       -1.63050139685706       -0.16452864492217
C            3.05732834127929        0.58765665687228        0.10767849185394
C            4.22295074553382        1.34372135831542        0.21045454452081
N            5.18580776658817        1.96772183941033        0.30187635962638
C            1.74199112024547        1.09611916840928        0.18597602013746
N            1.43869867984790        2.40115187389773        0.37491066605940
C            0.83607315605911        0.00131345588984        0.04654248973114
N           -2.40683285597031       -1.60961014957509        0.49894791915356
C           -3.46079648627260       -0.86119574114091        0.55544494763098
H           -3.01173736229584        2.20990503750897       -0.87998122702078
H           -0.71805565100827        1.92067798943913       -0.76277352529232
H           -0.85440244470081       -3.46113320801219       -0.11272637472014
H            1.59793753145782       -3.33132100044797       -0.34294197770100
H            4.99369830239369       -1.23728235564678       -0.20820245587102
H            3.94737069366744       -2.60999271615816       -0.34428746171500
H            0.52530896666968        2.63803424711573        0.72602003928745
H            2.19611434152930        3.01896421811229        0.62208579250804
H           -4.29918506945752       -1.31914429136594        1.07363201335891
