28
 energy: -46.674932428468 gnorm: 0.000925544587 xtb: 6.6.1 (8d0f1dd)
N            2.79758933759493       -2.90584119630450        0.02014859211509
C            2.36333849844551       -1.84082756760305        0.00656208105593
C            1.95117549818278       -0.48693753305984       -0.00133998239835
C            3.00303239236390        0.46541697993750       -0.02308068137013
N            4.27098551981291       -0.02002368211065       -0.09186990002313
C            2.85402325566268        1.85116967755422        0.00054646652521
C            1.68300642340201        2.59809621809622        0.02860426911718
C            0.37039221438467        2.19498431359647        0.03089962407019
C           -0.20007660902252        0.90402207804531        0.01416944889948
C            0.54668597162168       -0.34335819290284        0.01475797565987
N           -0.05835738277227       -1.54293920611622        0.02852521482090
C           -1.37203328148914       -1.64901390874642        0.02781530302071
C           -2.19926912144635       -0.54795190690736        0.00703309661859
C           -3.60636304991736       -0.37001609951392       -0.01358824841229
N           -4.54043241847873       -1.35837068724938        0.03476316897792
C           -3.85521451222696        1.01361121302182       -0.02627837279144
C           -2.65334272229993        1.69971092656389       -0.01600860902001
C           -1.59245534073875        0.76684694951413        0.00276051415466
H            4.43239344178494       -1.01034903369803       -0.02336364730379
H            5.05151202734187        0.60492916077754       -0.00260493831584
H            3.77895197580244        2.41505598590267       -0.00665589097288
H            1.83551460361934        3.67115438661047        0.04754047701751
H           -0.35760813455747        2.99528190266725        0.04819989981626
H           -1.74758724962327       -2.66637075558028        0.04356107990483
H           -4.24541128437137       -2.29797074998832       -0.16794450568524
H           -5.49059875009275       -1.12235489504592       -0.19595286767483
H           -4.83310814384187        1.46034239070755       -0.04335471511319
H           -2.56193857984086        2.77033878793164       -0.02634274179322
