33
 energy: -58.884639104610 gnorm: 0.000880024433 xtb: 6.6.1 (8d0f1dd)
N            5.66403518762944        0.52074377835822        0.66224951892810
C            4.54563018300076        0.35488478788991        0.44628678155831
C            3.18842181231652        0.14581442656672        0.21139237029661
C            2.56039774360054       -1.11933181057603        0.11716624939752
N            3.21179990885671       -2.32040756636064        0.17380217124492
C            1.17957216753224       -0.89781281205614       -0.05376547058982
C            0.12125600397186       -1.76962002172914       -0.28859415446126
N            0.29722267790942       -3.10319776068252       -0.46991820310185
C           -1.18990206231007       -1.21861101015847       -0.26053461423509
C           -2.23732833885708       -2.11905515028816       -0.52886795968520
N           -2.98239271187513       -2.92849997857616       -0.86596419085317
C           -1.43907970826684        0.15659604395236       -0.09730494898996
C           -2.75435860848541        0.56416442581260        0.26633258080428
C           -3.57253353716812       -0.41341207809024        0.88086816907991
N           -4.26371823498369       -1.10971214627043        1.47877348790850
C           -3.36337104257963        1.82037750020968        0.21536659778866
C           -2.86756843304036        3.00674943786580       -0.27835057577294
C           -1.56293590054691        3.24706618159053       -0.71593271849335
C           -0.46437138336628        2.43031792093317       -0.63543236438005
C           -0.32929441285958        1.07856483400746       -0.22650175983280
C            0.94633082665403        0.53456199083128       -0.06342767860331
C            2.21180070057298        1.15961844842660        0.11081554084415
N            2.48899267574287        2.49120092776173        0.19060304952486
H            2.70830891098559       -3.09364624110327        0.58045313506690
H            4.18258083586873       -2.26730693539044        0.44749348276044
H            1.18968004337239       -3.42335210614605       -0.80545664307212
H           -0.51125184060258       -3.64308356864222       -0.74053887059148
H           -4.38463850803176        1.83786197654609        0.57918367892712
H           -3.55503874924209        3.84006023688536       -0.32334933221916
H           -1.38398283468507        4.23220192216191       -1.12997348335112
H            0.45324680722745        2.85459231202101       -1.02158217607099
H            3.42551092058700        2.72398552457273        0.48668334711490
H            1.76272545367170        3.10119434067723        0.53162875065848
