31
 energy: -54.639631805389 gnorm: 0.000512333348 xtb: 6.6.1 (8d0f1dd)
N            4.98813853847557       -1.73716186320295        0.48029141214324
C            4.01651513135390       -1.14186839466985        0.31620845604060
C            2.83206421221166       -0.40789201767882        0.11925881895469
C            2.91305415679957        0.97354211068052        0.40631049431638
N            4.03558874519094        1.42458642937407        1.01195652748189
C            1.99231874031387        1.92936100438183       -0.03894923845355
C            0.69384880145883        1.75627087339463       -0.47331345575162
N            0.08620594612651        2.78781616072914       -1.08717766958717
C           -0.12972263788271        0.58323209914775       -0.22909701517373
C            0.36523334690482       -0.75051948628610       -0.28699676849496
C           -0.58678105853528       -1.80724378437364       -0.18818450345544
N           -1.87412653714666       -1.66553463887986       -0.06323754308092
C           -2.35581181370336       -0.43258047000590        0.02179517967372
C           -3.68100809483190       -0.00272682461170        0.18525932984703
C           -4.82272813076604       -0.80001739552607        0.24056174966418
N           -5.78353640867881       -1.43177285893122        0.28036909361407
C           -3.64804683363631        1.40402802374726        0.31370080841818
C           -2.35137104583464        1.86224759133840        0.18974980131776
C           -1.50055343877591        0.75283585222014       -0.01169516041053
C            1.73689127210568       -1.12906166072652       -0.41139427980144
N            2.02037637366417       -2.32692063901288       -0.96414311120529
H            4.77877053411428        0.78908734190951        1.24667191041540
H            4.18015033869011        2.40887757512225        1.14357450037083
H            2.36034325167386        2.94933660033539       -0.05217182352122
H           -0.87289167638956        2.69751441144487       -1.37720093017346
H            0.56663070349251        3.65884974370670       -1.22670017829652
H           -0.24964800017561       -2.83499644551328       -0.14167061314763
H           -4.51562515281957        2.01716536347929        0.48343952736094
H           -2.05866528160735        2.88931652579781        0.32337722171211
H            2.95422406303123       -2.69931952110693       -0.90728584041956
H            1.28336312097633       -2.92148151338379       -1.29868995015826
