35
 energy: -61.529940723553 gnorm: 0.000757808690 xtb: 6.6.1 (8d0f1dd)
N           -5.14006197092754       -0.25178449612287       -0.28786993770933
C           -4.05274088486859        0.11637889816524       -0.18596680733260
C           -2.77448630326674        0.65037890293600       -0.07908037975387
C           -2.49104482011561        2.04890542253327       -0.10992278522467
N           -3.45346495920721        3.02364487348420       -0.15832853010230
C           -1.12048355988440        2.24232383248834        0.00396582527059
C           -0.49833357148430        0.98072635927601        0.10406934251857
C           -1.54748988336932       -0.01509557635261        0.02140017747008
C           -1.20528661865356       -1.37023295941586       -0.00285376473864
C           -2.19431261525686       -2.35950637423978       -0.15975191579018
N           -2.94256021936361       -3.22141854149701       -0.29876284993203
C            0.13694493785838       -1.76404991208575        0.07696728666204
N            0.42784055715219       -3.15023647773217        0.01099539273993
C            1.17447348683131       -0.81231720310382        0.21526395615859
C            2.53566756040512       -1.27738181437137        0.41248543310199
N            2.70729564722620       -2.43478967954966        1.08803508977239
C            3.67172720452641       -0.66915191466396       -0.10255411258263
C            3.77049812212499        0.64819619527744       -0.57253666039984
N            4.78771009830250        0.99404164123065       -1.39557166720747
N            3.02648849150473        1.64982858463135       -0.13524549697998
C            1.84680367886827        1.59547536149634        0.43079241654457
N            1.52337214323494        2.64453937643367        1.20143851444057
C            0.83687813780058        0.57917764759785        0.21913696155909
H           -4.36874990503086        2.72029145725020       -0.45249002249417
H           -3.16971254017487        3.92818970409986       -0.49777456424707
H           -0.64129285805052        3.20304214365240       -0.05563577977531
H            1.09655218251427       -3.37783362261081       -0.71617951710317
H           -0.42167937405838       -3.68875301489966       -0.12276419294947
H            3.61873942477897       -2.85825508332204        1.11532624181810
H            1.89568430319540       -3.00510210055060        1.28146141716815
H            4.57712649745545       -1.26359755991134       -0.12189732169351
H            5.51559863875297        0.33748673120684       -1.60886482309182
H            4.93853033960796        1.96969322341109       -1.58170404059915
H            2.17945832910305        3.39872617422605        1.30436998361976
H            0.60220910626860        2.70683281023239        1.59914546656266
