29
 energy: -51.215866770445 gnorm: 0.000917868812 xtb: 6.6.1 (8d0f1dd)
N           -5.14345538622670        0.56121996736767        0.40474545043136
C           -4.01267773888746        0.76090405634274        0.33971106970274
C           -2.65108162494164        1.05314774915268        0.26207210282055
C           -2.08831824913690        2.34960917294117        0.39327665915299
C           -0.72342279314020        2.28185240713566        0.23663305672234
C           -0.36305962028024        0.92759826660705        0.02013194202807
C           -1.59531638318460        0.15830541710539        0.05534641330427
C           -1.53944291062739       -1.23090207137440       -0.13882413574605
C           -2.70788528697774       -2.02553918385333       -0.17203668200126
N           -3.62384876240975       -2.71391499815640       -0.21115576457965
C           -0.31056089396706       -1.84494638647373       -0.28606881615996
C            0.90841079232337       -1.13264026706600       -0.24990902218139
C            2.08919527920082       -1.91591232615765       -0.29314737200899
C            3.37617751236062       -1.58353555968248        0.01919787177781
C            3.83805701132414       -0.28165176743602        0.34010209224469
N            5.02086502665419       -0.14765313741104        0.97327418576018
N            3.27570320619195        0.84315857133758       -0.05396916154108
C            2.05351051828277        1.07999342764963       -0.45885930000651
N            1.88782734862540        2.21139750551831       -1.15726885757225
C            0.86358215075387        0.29510157396420       -0.17578837501777
H           -2.66070382241116        3.23949011681347        0.58560933902822
H           -0.04906411709570        3.11264189747868        0.34451854181703
H           -0.27681447167527       -2.91869403277086       -0.40172288300817
H            1.91543878075607       -2.96748863740445       -0.48922037307233
H            4.10882440265646       -2.37769285691350        0.07043055947375
H            5.35416967125276        0.77380837506479        1.19347067535460
H            5.53253901713758       -0.95042843969159        1.28937251607834
H            2.68994452339228        2.77848563885250       -1.37096430576237
H            0.97235152075061        2.48187236466107       -1.47360941613915
