25
 energy: -43.503967518079 gnorm: 0.000831582670 xtb: 6.6.1 (8d0f1dd)
N           -4.99230470588654       -0.68983452975660       -0.21399505851080
C           -3.99141933886576       -0.12524156035053       -0.15054456652004
C           -2.76770923896891        0.53536938071812       -0.07382945894291
C           -2.55369491480072        1.92319967146259       -0.00565140034976
C           -1.19215339443618        2.18362284334833        0.06541921184420
C           -0.49937913144986        0.96060359368296        0.04417630866375
C           -1.49680107444841       -0.09166203077934       -0.05292581466859
C           -1.12303722193670       -1.41378641379196       -0.11210417803753
C            0.23013077196810       -1.76452980988549       -0.04403844532013
N            0.56548776325339       -3.10229767575543       -0.01880290562507
C            1.23128235643605       -0.77305625420621        0.04378952984516
C            2.55750295890631       -1.16305870260360        0.37106363233408
N            3.68229133192995       -0.57979287216654        0.08029448170214
C            3.82756276684709        0.64303666998788       -0.39817316093788
N            3.08245350648684        1.68416218059644       -0.13558665703119
C            1.81664257204820        1.67010795689771        0.20724609980493
C            0.86237599018589        0.64140908519755        0.04757407937659
H           -3.33493428310170        2.66200267298922       -0.00654469207613
H           -0.75579122682054        3.16407594833440        0.10714663060627
H           -1.87175462578511       -2.19070906805085       -0.18796499811387
H            1.46689044237227       -3.37414172212923       -0.37400420460910
H           -0.18103491998926       -3.73902740394673       -0.24642837878805
H            2.67924451317217       -2.12078875988626        0.87079741076547
H            4.75494336249503        0.83563277940598       -0.92635893617176
H            1.44523422508750        2.63408371508791        0.53748305615974
