31
 energy: -53.855933453637 gnorm: 0.000774401559 xtb: 6.6.1 (8d0f1dd)
N            2.84802800735766       -3.66669374685979        0.00289595374626
C            2.53085873118292       -2.56011145853501        0.01002277342597
C            2.19046628037455       -1.19510094693616        0.01774629939099
C            3.28437237518312       -0.34139075715100        0.09161660920921
N            3.38401361590153        0.96959962336365        0.07941411097675
C            2.34844536177786        1.81576780027247        0.00818863067542
N            2.75730761720589        3.11282981166030       -0.03587677015598
N            1.04067687498518        1.66269431478821        0.02150300342907
C            0.31622398639430        0.52071189517308        0.02637096621425
C            0.79074792040133       -0.85297265237930       -0.01367858451717
C           -0.13279315372688       -1.88289994964800       -0.03304779692517
C           -1.52847327235247       -1.70634083018991       -0.00634978660255
N           -2.35350504858320       -2.80783834996547       -0.01908130665721
C           -2.00128641056760       -0.40350072171498       -0.00288342422369
C           -3.30702387146751        0.17965532409888       -0.01931566938435
N           -4.48390709766198       -0.51532640661162       -0.08509792392915
C           -3.18146110479759        1.56520783553667        0.06862039162270
C           -1.82219483642199        1.89313753183702        0.10339839006439
N           -1.22356039942206        3.08574007599955        0.16004320505170
C           -1.06299357750081        0.67551713618337        0.04257732371225
H            4.25640384506445       -0.82821348902085        0.15313693175167
H            2.09892282613246        3.83720491502559       -0.25778294321679
H            3.74018477602285        3.27797911479823       -0.15869676885672
H            0.23857810384147       -2.89914628654002       -0.04684578509998
H           -1.88996309440313       -3.68795332642155        0.15158764655867
H           -3.23460295719796       -2.70970785202911        0.45979483272504
H           -4.45744233752839       -1.39113900412066       -0.58362858674161
H           -5.30425893337873        0.04173690394607       -0.27072079841005
H           -3.99763077852736        2.26414804159392        0.08571151309453
H           -0.20411854585057        3.01683482139189        0.16876054205127
H           -1.74026467893770        3.94176276095406        0.24882609112027
