32
 energy: -59.173773975281 gnorm: 0.000549929611 xtb: 6.6.1 (8d0f1dd)
N            3.55453713706236        3.56853678402087       -0.68978962804348
C            2.91993747946514        2.63341943481007       -0.48344909413751
C            2.14805604321287        1.47950180969400       -0.21902604933786
C            0.78115504210056        1.68075312812728       -0.18675470582642
C           -0.30447234549758        0.82539663446491        0.02450913139392
C           -1.57330795174622        1.48850961973038        0.19112566030995
N           -1.62130860888734        2.85098406037049        0.38517489882498
C           -2.77576177284248        0.78981964367534        0.10786331939899
C           -4.00309214340759        1.46011105281493        0.26297325934781
N           -4.99517569845579        2.02150062936776        0.40708952086189
C           -2.75287035982700       -0.59883562447656       -0.09437129500727
C           -3.72497687881257       -1.58283809722746       -0.21135529346956
C           -3.02289274429268       -2.78561522292315       -0.31247370792268
N           -1.70005661379243       -2.62068722418217       -0.26449285919280
C           -1.47609792990455       -1.28508014478878       -0.13358092006671
C           -0.25407466645445       -0.61514866637241       -0.04331806388859
C            0.95205988678062       -1.42108765777349       -0.01633249800011
N            0.76824885031922       -2.72961243836301       -0.11454611987242
C            2.29705351203556       -0.98554493751984        0.16438110434360
C            3.22627606309316       -2.02268729479870        0.40561325414182
N            4.00327811760193       -2.84429125260034        0.61653023872796
C            2.87602412275958        0.28834415001815        0.05485867346555
N            4.21261210668288        0.40509286177602        0.19093762455935
H            0.50754693008938        2.71197377528139       -0.37997180444300
H           -2.54381244148977        3.22493679312592        0.55171910163368
H           -0.89284456727282        3.29296384759587        0.91934739180688
H           -4.78853033629193       -1.45199837104277       -0.21992771346834
H           -3.43417048867689       -3.77361865302957       -0.41999395450264
H            1.55482222402073       -3.35773209095777       -0.06108353013854
H           -0.23418654655014       -3.06114515368241       -0.20520710806278
H            4.78395613455447       -0.40729012278953        0.35251416900237
H            4.65522074492294        1.30092257125463        0.07143977046163
