30
 energy: -55.719832171921 gnorm: 0.000654771447 xtb: 6.6.1 (8d0f1dd)
N           -5.31977301727923       -1.30043764884040       -0.62948058331196
C           -4.23435279535191       -0.96911060580026       -0.44235260589212
C           -2.89532962761804       -0.62347818780964       -0.19394959176713
C           -2.49502937333134        0.67906435880641       -0.40656940807774
C           -1.24929492050617        1.27877302399037       -0.17441633231443
C           -1.27076444720828        2.66267752547101       -0.47931921591737
N           -1.38897045924492        3.75271154700660       -0.81926617997426
C           -0.00574474175114        0.67585662149454        0.13388303741034
C            1.13018250713333        1.48480156339997        0.37095838993667
C            1.01773580691398        2.82593293065715        0.79508081909578
N            1.04397927427024        3.88444202903898        1.23969413675777
C            2.43598793945957        0.98829392534189        0.26127566652575
C            2.62037547561434       -0.32985334396094       -0.07642323369850
C            3.79226627478544       -1.12666001723087       -0.27006730789889
N            5.05972254653483       -0.67836578593283       -0.26730362500646
C            3.37491613936191       -2.46051386737081       -0.45722317263451
C            1.99892466811122       -2.52117937767039       -0.37772811882616
C            1.49119493010915       -1.21758978467228       -0.15116537173769
C            0.18726281017930       -0.77211856745452        0.05799539620942
N           -0.74139614587607       -1.70049977211979        0.28347494921087
C           -2.03840806926050       -1.66551900898459        0.33066684006535
N           -2.63843067130583       -2.74775795341882        0.86568196587576
H           -3.26535764866341        1.35468128206797       -0.76446948062211
H            3.26147716511631        1.66632913414691        0.42934561546453
H            5.25704683019837        0.29138804609524       -0.09810290561204
H            5.82433425684828       -1.32121028721904       -0.36829865183628
H            4.03659668367280       -3.28852560351322       -0.63299677207508
H            1.39553871884311       -3.40349631042259       -0.47610375630709
H           -3.63764013663926       -2.85430195380063        0.83345158903813
H           -2.06071613710350       -3.50786360899802        1.17932546190482
