33
 energy: -63.701665651340 gnorm: 0.000652705130 xtb: 6.6.1 (8d0f1dd)
N           -5.02247625772142        1.66054900000638        0.57354221512958
C           -4.14694875330617        0.93435273680032        0.40774359828127
C           -3.10401091594282        0.01508446588039        0.18821038968213
C           -3.45480795026450       -1.18376348198628       -0.50583419571064
N           -4.54180500724523       -1.18849427566679       -1.29249660408672
N           -2.87766500227172       -2.35616715899623       -0.31300949022406
C           -1.69156465308039       -2.62464277354572        0.15174104324925
C           -0.55364730535980       -1.80075091217816        0.23206586457760
C            0.69608872842059       -2.45507660928374        0.26283248068968
C            1.88885989990122       -1.76780536647697        0.17312726566366
C            3.11021282462706       -2.47801041802082        0.19085711114986
N            4.07925136083641       -3.08975742804100        0.21382433590121
C            1.85858499248801       -0.36822510313213        0.02986941214721
C            2.87819190361478        0.56853115193403       -0.16162256490068
C            4.25154000293884        0.35481105378540       -0.27474662068953
N            5.39263992380166        0.26349626187302       -0.38264096993177
C            2.27422538432153        1.85638643274688       -0.27249298374070
N            2.94440178579690        3.00973946902030       -0.46398583351191
C            0.88346345811865        1.71888084961906       -0.10463164034301
C           -0.00829625479180        2.77270197381946       -0.26812813510116
N           -0.72635571936459        3.66387286122388       -0.40843888169839
C            0.59203505408493        0.33228716920481        0.09477024256345
C           -0.60292732027875       -0.36208427953656        0.26362751854179
C           -1.81790057192925        0.34732851868794        0.62893037588054
N           -1.68196252684400        1.40692321849118        1.43628278635686
H           -4.84632728694042       -2.06250687825612       -1.68601627864860
H           -5.11802732965932       -0.36908738106665       -1.38377075077483
H           -1.54801052193462       -3.68015847148563        0.36349448184037
H            0.71126965249029       -3.53375099953794        0.31236826616430
H            3.92461690095346        2.97479071409804       -0.68547798598612
H            2.43416939210359        3.85402652776627       -0.65795996827294
H           -2.46432563524844        2.02218731481544        1.59838485434268
H           -0.76574754771203        1.73663397934192        1.69091545235838
