29
 energy: -50.399325254728 gnorm: 0.000306913188 xtb: 6.6.1 (8d0f1dd)
N            4.79778281646813       -1.73938876914546       -0.09628151537131
C            3.82828507102338       -1.11801174533715       -0.06731713523610
C            2.70782059516761       -0.29547174217635       -0.04188651472679
C            2.75009283943948        1.12036442852853       -0.10325277484449
N            3.90048220634430        1.85884551303966       -0.10889014555368
C            1.44790558747629        1.62962522378757       -0.06328562961851
C            0.54796980144273        0.55666939782153        0.00797563846024
C            1.35271975853932       -0.66922668482972       -0.01665621681541
N            0.83563809067563       -1.88341884048157       -0.05075036187721
C           -0.47406902039906       -1.98050201569228       -0.04588431030132
C           -1.37450195630588       -0.90232479242411        0.01739318565522
C           -2.77884328145670       -1.19538767353663        0.08454133862469
N           -3.17678343254655       -2.33827285141323        0.67567428647029
N           -3.74873428630580       -0.51189040880805       -0.49189880521650
C           -3.78501112124723        0.76841753394546       -0.76628272047386
C           -2.96650124128247        1.76353745535811       -0.26526280628746
C           -1.67741504993087        1.59981013532771        0.25417888111207
N           -1.10906020071729        2.66618359112973        0.84725189435830
C           -0.84970978868844        0.43456880310238        0.06561862544256
H            3.84528842847894        2.80129756744046       -0.45816546029722
H            4.74744633404253        1.35881787366511       -0.32792252759100
H            1.22366550374279        2.67618611192318       -0.17421508990893
H           -0.84994703204659       -2.99140201609119       -0.14689898272530
H           -4.14523019093187       -2.59848444588536        0.60133209321173
H           -2.50947074988529       -2.99023585213902        1.04646604017623
H           -4.65350158285400        1.06242350737150       -1.34641821208471
H           -3.33830455512017        2.77975866666306       -0.30955213779306
H           -0.19778678758831        2.57461198106387        1.26345773889620
H           -1.64041747393448        3.50649283399220        0.99264142491554
