28
 energy: -45.867450500770 gnorm: 0.000864256452 xtb: 6.6.1 (8d0f1dd)
N           -4.62044335492432        0.52227494788429       -0.12133660583911
C           -3.30035771451126        0.15656069544524       -0.10883430427036
C           -2.19898807622478        1.03240900220284       -0.08795787710942
C           -1.06758006781595        0.21602234839423        0.00009468094205
C           -1.62130455591844       -1.14877642921162        0.00021320922753
N           -0.86328495295584       -2.22501330112676       -0.02795500675151
C            0.43861469050079       -2.04261191614742       -0.02195612874000
C            1.12208517945812       -0.81126105071821        0.04008578707682
C            2.55398004396650       -0.87208101033954        0.06898812675083
N            3.13107689702665       -2.02319949181579        0.48961836458291
C            3.43484648031020        0.10539870408082       -0.40328416854921
C            3.20133312142651        1.45291286948940       -0.59105720624841
C            2.09477975480007        2.18096722253471       -0.21042415420572
C            0.85127363353228        1.71689661706378        0.23127298601949
N            0.01728337884408        2.64365957137126        0.75241511125011
C            0.32642087487818        0.39261347287432        0.06601719469320
N           -2.95625906539585       -1.13757903804508       -0.03007924820765
H           -4.84062082759237        1.39717471180574       -0.56945711235063
H           -5.24816031948212       -0.23866073105857       -0.32749225421281
H           -2.27735980837402        2.09540898232568       -0.22634124843035
H            0.99543084631083       -2.96287099454807       -0.14966579179710
H            4.12769067565022       -2.13307369871757        0.42958793458843
H            2.58192928044104       -2.77075709431083        0.87071039798888
H            4.44999975869341       -0.23260837394485       -0.57618404802101
H            4.03589040298257        2.02661805316814       -0.97393415037239
H            2.19275383290434        3.25972320434481       -0.24755136427809
H           -0.84800250638482        2.34361154569807        1.16862582641833
H            0.34632644065396        3.57867470940100        0.91352526024488
