32
 energy: -59.966190182010 gnorm: 0.000706261554 xtb: 6.6.1 (8d0f1dd)
N           -5.33755405979280       -2.05582452623478        0.69705018924239
C           -4.43621122551876       -1.38429946991694        0.46341671128332
C           -3.33398792907877       -0.54782532150148        0.16428072047786
C           -2.10886819172263       -1.20363453169128        0.09789411191950
C           -0.80115020196661       -0.76683974237792       -0.10581021347135
C            0.20610463817359       -1.78434880443774       -0.20129394628986
N           -0.14234830361545       -3.10654066728190       -0.32441462084360
C            1.56318081496853       -1.45534770458023       -0.10034956671963
C            2.52277605484038       -2.48692094688329       -0.18056908664687
N            3.24867221751066       -3.37098945421168       -0.27393786683345
C            1.95224783200522       -0.11814107521214        0.04418009100534
C            3.21733722000421        0.47876094913015        0.17343287341827
C            4.45187154279408       -0.17068219705851        0.26704306135843
N            5.47866108797954       -0.67885739257853        0.35167550813122
C            3.02980595538373        1.87381096341452        0.20031429006183
C            1.67168460380202        2.16397383318648        0.08248174387328
C            1.16404668094500        3.46378941968646        0.09196045721661
N            0.77263603483289        4.54666596972194        0.10568384219229
C            0.95690541854890        0.92764042324501       -0.01325992056982
C           -0.40141711536656        0.63165939816700       -0.13045794988834
C           -1.29857241856296        1.71490848802928       -0.29997139392442
C           -2.66023271422352        1.80493494412379       -0.32149653601235
C           -3.63359003752905        0.81520748381344       -0.07418653670846
N           -4.92374939058702        1.19863819058499       -0.06175264995916
H           -2.20246615126559       -2.26722968895844        0.28849904382829
H           -0.97057806549246       -3.35051687460468       -0.83919728374643
H            0.62686062890415       -3.75019022809007       -0.43518509067604
H            3.81457409564366        2.60147938555510        0.29974172233085
H           -0.79503770061485        2.66162232535084       -0.44654605704673
H           -3.06301604533476        2.79420310086693       -0.50276041840796
H           -5.16874583512208        2.16293503606391       -0.20434362919254
H           -5.65511210744158        0.53730386188000        0.14223728419738
