25
 energy: -42.711015787843 gnorm: 0.000729446986 xtb: 6.6.1 (8d0f1dd)
N           -4.23831072622450       -0.75026983993195       -0.49197019650681
C           -3.00710676041951       -0.51835558875522       -0.00384703506658
N           -2.78090453361357        0.74231205793103        0.39496893026927
C           -1.61684897180358        1.31825700349892        0.46992507701272
C           -0.32966781613083        0.88026897692041        0.09069403068283
C            0.69012536026964        1.84783064198365       -0.07859748436336
N            0.38100019354644        3.19588382301307       -0.09209584947161
C            2.03279299390685        1.47968061647744       -0.19298360093790
C            2.39310570112037        0.15296110550331       -0.12625996587279
N            3.62066995943006       -0.38965855720058       -0.19526971290264
C            3.43175823777486       -1.70793609655724       -0.09868675956437
C            2.08964835813059       -2.07821758020574        0.03846447736993
C            1.36962258083456       -0.88410922116895        0.02769241074729
C            0.01060335399468       -0.54056982659223        0.09557217922831
C           -0.92724414570105       -1.56629996689804        0.28313922219326
N           -2.23424768279361       -1.58369721974065        0.15182708328431
H           -4.51698830163756       -1.69829878304160       -0.67241398315097
H           -4.91687154498508       -0.00979911291894       -0.48199594961890
H           -1.68312848426871        2.32774830365764        0.86956867133946
H            1.13872333907767        3.80018301098912       -0.36774466256872
H           -0.51822752932819        3.47283856568271       -0.44821289904443
H            2.78969145295643        2.24013664242544       -0.32061163253090
H            4.27888703845820       -2.37178201573740       -0.12871950209376
H            1.71969514423654       -3.08195864108399        0.12126922968569
H           -0.51837146053039       -2.55057255605037        0.48711090078080
