32
 energy: -48.745750320452 gnorm: 0.000773102373 xtb: 6.6.1 (8d0f1dd)
N           -4.34688877572301       -1.62351270665481       -0.32864551583941
C           -3.18531314056092       -0.89072187019114       -0.16145667780124
C           -3.34199631834298        0.48660624133230       -0.03152430833641
C           -2.35601905916242        1.43593020304680        0.24371705667854
N           -2.79749257569898        2.73986763910464        0.40194686905007
C           -0.98001956060276        1.25044135174198        0.27677627502827
C           -0.17357180893460        0.11406210932727        0.08359756215485
C           -0.66569032365432       -1.25303863873218        0.09353696739888
C            0.26579981791451       -2.30271848098054        0.21413376703401
C            1.62997744336438       -2.10731905241338        0.24880838353512
C            2.12858504621442       -0.82793801758028        0.10142725780344
C            3.44772337841541       -0.31723922558642        0.02595621506966
N            4.60379679968651       -1.06627215674647        0.05773494458324
C            3.36369506807100        1.05654985821167       -0.19556308812425
C            2.01899952987729        1.43613187308876       -0.24083022748445
N            1.58466799641214        2.73146431947470       -0.47556902154703
C            1.21370288346586        0.28426849808808       -0.02399498427571
C           -2.00969085876454       -1.62766939036830       -0.03370780745949
H           -4.24550826219080       -2.56589132446556       -0.66718920249051
H           -5.15089544988338       -1.13076691482869       -0.68035427624820
H           -4.35686112385311        0.86076967672119       -0.10276655800033
H           -3.76104140497966        2.86238019056299        0.66697392234956
H           -2.15695324296220        3.37687528765187        0.84756650573772
H           -0.42432676130826        2.14609971937082        0.52079870634732
H           -0.11854722076145       -3.31128358563793        0.28150827422146
H            2.29118513459145       -2.95768650550221        0.35515584553520
H            5.44431486222419       -0.55930829725977        0.28773619423573
H            4.52691436702451       -1.96286965544881        0.51158556008012
H            4.19984679370564        1.72090107513971       -0.32933665853550
H            2.31128453577804        3.32783161993338       -0.84952530588688
H            0.72688636168049        2.78788633878498       -1.00924489024888
H           -2.16366425194258       -2.70171976988489       -0.07690899496491
