26
 energy: -43.247588545114 gnorm: 0.000432260878 xtb: 6.6.1 (8d0f1dd)
N           -1.88443414514649       -3.49470568191680        0.00465796343553
C           -2.03517937336080       -2.35156054073078        0.00331213007847
C           -2.25948593544815       -0.97757232450804        0.00217006250249
C           -3.54579263597673       -0.40910447882029        0.00101640320441
C           -3.44567482177749        0.97462710053762        0.00011713716679
C           -2.08936233237658        1.31327573400725        0.00069432759755
C           -1.43471814162129        2.54096462071833        0.00023373552720
C           -0.06236749909081        2.57328138453647        0.00109269195757
C            0.73261131126726        1.40587673308882        0.00243621075425
C            2.12493531027611        1.61853187408623        0.00331783601101
N            3.17518603675625        0.83991440221803        0.00462441702428
C            3.20415661709310       -0.48928208584857        0.00542585290279
N            4.45468471431029       -0.99674426979631        0.00625974684946
C            2.11936736474699       -1.40160464502327        0.00519453981008
C            0.78378137570881       -1.12517210769933        0.00410156925805
C            0.08516037137203        0.10857277690225        0.00286956499301
C           -1.31240985073243        0.08544300911444        0.00200578661949
H           -4.45838882136476       -0.97860678035700        0.00088524915685
H           -4.26655670578989        1.66745390816426       -0.00084648642161
H           -2.00448640807821        3.45926162754598       -0.00078404541185
H            0.44485951641959        3.52754499943636        0.00074310196738
H            2.41748254264203        2.66741014691680        0.00291122092051
H            4.62346738415714       -1.98593172170624        0.00841667674079
H            5.22624643629867       -0.35278148438914        0.00727621055555
H            2.39850038863716       -2.44807252395141        0.00599568873414
H            0.13816103417818       -1.99366884812578        0.00418543496581
