25
 energy: -43.509182377052 gnorm: 0.000726650909 xtb: 6.6.1 (8d0f1dd)
N            3.22484453615244        2.86386685674704       -0.00184464162444
C            2.76064747378430        1.81439486728445       -0.00127646875814
C            2.27784930928013        0.48135292048956       -0.00035263139618
C            3.27144759781986       -0.49591308292928       -0.00968225334891
C            3.14300572371826       -1.86856525243892       -0.00988502355759
C            1.95747943540204       -2.61074070472112       -0.00151493381389
C            0.65849418721913       -2.17438456025105        0.00531039011289
C            0.11250180883577       -0.86714165302533        0.00629414067360
C            0.85702702274369        0.37634399596193        0.00792616706170
N            0.26668088523671        1.57580391339442        0.01573972623927
C           -1.04951333572556        1.70235855937293        0.02004557074382
C           -1.87848733123211        0.60705468429748        0.01355360818059
C           -3.28083864993527        0.36710552757310        0.00886236725193
N           -4.27152403437075        1.27721465597434        0.04775340130277
N           -3.54309837751918       -0.95423396840647        0.00028165863637
C           -2.37729593201275       -1.59778585018580       -0.00022544039011
C           -1.27894196746669       -0.71553944661525        0.00654275713822
H            4.28417591092825       -0.10796199609032       -0.01683405130000
H            4.06230057882702       -2.43841375523662       -0.01681118167985
H            2.08815287319653       -3.68638314901737       -0.00122586686874
H           -0.09441581974163       -2.95270539998037        0.01002365291531
H           -1.41380118183906        2.72276097645278        0.02868889419545
H           -5.21423241902537        0.94801514135430       -0.06713599743627
H           -4.06919046159508        2.24875338073522       -0.10321809369432
H           -2.37219186218073       -2.67232946263960       -0.00910900858347
