28
 energy: -49.897697157676 gnorm: 0.000424968280 xtb: 6.6.1 (8d0f1dd)
N            3.75017427746756        1.67763010330738       -0.50527088377193
C            2.95465324043721        0.64357890656493       -0.13565512964442
N            3.65655758239039       -0.44616705750486        0.20676773451031
C            3.14744153446368       -1.65188862742443        0.35699569435985
C            1.87072216424205       -2.13884530057463        0.16320669235107
C            0.68191416610831       -1.40296108776997       -0.02773648057406
N           -0.42345930823581       -2.13725915584301       -0.13877529640227
C           -1.64535908696382       -1.60083995571526       -0.15025589594950
N           -2.68019863296207       -2.48293794990231       -0.29851550005755
C           -1.82149628383801       -0.23395899591721        0.03997373420000
C           -2.89284867140659        0.69077092623603        0.11905560147015
N           -4.22586285371265        0.40992299678852        0.09522762947680
N           -2.46188217319177        1.96561534611430        0.16722655738177
C           -1.12083619377797        1.92112721254445        0.14108554368769
N           -0.31505026784627        2.98838764674297        0.20071885612513
C           -0.63841404927299        0.58067585116126        0.07790785154497
C            0.64200471895722        0.05992623051382       -0.00714649022755
N            1.66782806703755        0.92614352224628       -0.10279292510856
H            4.74316486963108        1.56239548367803       -0.41828143960391
H            3.35291941545438        2.58427778414797       -0.66764830780147
H            3.90286379134854       -2.37876237053755        0.64817080259646
H            1.72487562625136       -3.20639159393628        0.25587421252801
H           -3.53028760739208       -2.13419616673335       -0.70956989816406
H           -2.39498486883705       -3.40717500431160       -0.58372351112943
H           -4.51173986254764       -0.47007411941927        0.49409842271109
H           -4.81512838897673        1.19853044516712        0.31420603980554
H            0.66389903125436        2.77904895912114        0.05256835256252
H           -0.69126042768130        3.91261216335585        0.08723976202401
