27
 energy: -51.758959724323 gnorm: 0.000557485320 xtb: 6.6.1 (8d0f1dd)
N            3.00721411043323       -3.11149568574153        0.55758217292923
C            2.37153781069642       -2.17770047209981        0.34954949250978
C            1.66354021528905       -0.97890829108408        0.14268000659754
C            2.37469782910841        0.24646220143648        0.24763803945681
N            3.66724892481212        0.25145592953066        0.60091891093627
C            1.68347481852218        1.41647822327057       -0.09307892771091
C            2.05565033513211        2.76301492637627       -0.20535243282559
N            1.02030510173504        3.52902736267146       -0.56499034003593
C           -0.04823645929686        2.74114052311637       -0.65972372133785
C            0.27014339944105        1.39579690573726       -0.37529629687713
C           -0.47122719542753        0.20752569180761       -0.29669185251091
C           -1.85109201279885        0.18649382296893       -0.06007057943486
C           -2.53026780287572        1.40026448792280        0.16650510809862
N           -3.18166567009069        2.32377576899701        0.37878792262511
C           -2.66651569265895       -0.98431046174056        0.16738728341050
N           -3.79693344987279       -0.84011817842706        0.87807101077764
N           -2.47125078855342       -2.18485894044473       -0.34255105413462
C           -1.35169620824880       -2.59891754208387       -0.90010576117194
N           -0.13465513919130       -2.20505545420925       -0.68902026632440
C            0.31817945741519       -1.03903922936094       -0.24967176916673
H            4.14625104898568       -0.61679581131313        0.77735862306077
H            4.18773666516380        1.11058160464926        0.59435210679725
H            3.02280486050176        3.20470531508229       -0.04454299208278
H           -0.99277945888272        3.14709597684604       -0.96754627357490
H           -4.40396510575334       -1.63820906104353        0.95899342414079
H           -4.11166671547529        0.06495822450169        1.18487861620296
H           -1.45102035030964       -3.48562733446617       -1.51853058605450
