26
 energy: -47.228212695898 gnorm: 0.000657456846 xtb: 6.6.1 (8d0f1dd)
N            3.58887965241364       -2.65897531445829       -0.25487996612224
C            2.90701348117357       -1.73919006057790       -0.18203173152852
C            2.13292810340574       -0.55671912650685       -0.11003120060706
C            2.84671619856651        0.62942499561089       -0.31344431420088
N            2.51115113837850        1.87891231897770       -0.15234294724268
C            1.29309189953810        2.34505745056656        0.15791821816240
N            1.30690960838216        3.67414035835848        0.42397957951955
C            0.05672452310116        1.69476312671339        0.12859797750218
C           -0.24026644052619        0.33068939902711        0.02828498395504
C            0.74109222823543       -0.74857531290763        0.09893813634521
N            0.40358742102471       -2.02016880019822        0.30771753120294
C           -0.86129043170782       -2.39803368595589        0.37803459910198
C           -1.89032528391584       -1.50841857851632        0.15577372981164
C           -3.30156991040533       -1.58082077053329        0.08156470521859
N           -3.83867129412483       -0.39941908642841       -0.16645478178747
C           -2.82665504400953        0.50214351116060       -0.25582001230269
N           -3.11887279754761        1.80252238131857       -0.51666778500764
C           -1.56892650425338       -0.11348222022760       -0.04526928016065
H            3.88939783239480        0.50629071233877       -0.59764063406772
H            0.49503320477374        4.14540401314095        0.77848267995983
H            2.20454579596007        4.12234831733773        0.48435958519268
H           -0.79779687898406        2.34369923705743        0.27377655600722
H           -1.02683799413446       -3.44576080837006        0.59229847938181
H           -3.91735759660183       -2.45433604584752        0.18796839783480
H           -4.08260820045935        1.95871995594532       -0.77200472897728
H           -2.43548222727773        2.35182645777464       -1.01325968659105
