35
 energy: -67.141117835515 gnorm: 0.000681853051 xtb: 6.6.1 (8d0f1dd)
N            5.64963739499002        1.47820784758232        0.20222958332563
C            4.56395094090603        1.09552446912964        0.15254651810395
C            3.24792934134450        0.61644505689857        0.10008332584829
C            3.03229298243986       -0.71332770747405        0.56617662007909
N            4.00932273028086       -1.30204396791151        1.28883006903533
N            2.00874780077182       -1.48708064485437        0.30292768968891
C            0.76837149196083       -1.23769235773493       -0.06968754406151
C           -0.00285720718296       -2.37343771658550       -0.42260697551665
C            0.66280177970713       -3.59692818927735       -0.62706868795982
N            1.17684528523436       -4.60816409572449       -0.80444474587801
C           -1.39350259108738       -2.32132973861641       -0.50606406666180
C           -2.02662761821012       -1.14480869952136       -0.18323999178808
C           -3.41689185161639       -0.84503656676697       -0.05658960871406
N           -4.43599334647215       -1.68819953596567       -0.27418395026207
C           -3.52602709689557        0.49425989570118        0.35944633071552
C           -4.71616886276800        1.15987815010317        0.64832398111673
N           -5.70184436984560        1.70379209480463        0.88618834244932
C           -2.22754137238887        1.06080134619997        0.46209494280009
N           -2.01896483790193        2.26559545315514        1.01194002020174
C           -1.27477825934394        0.05961046384912        0.08515784167124
C            0.11892794419831        0.06762447460330       -0.05200733167097
C            0.85152665848224        1.24898874491704       -0.36817567447042
C            0.09089495677703        2.30309776300127       -0.89462596553836
N           -0.50341401459975        3.18647594270045       -1.33884976464453
C            2.25255881965095        1.48245991418852       -0.39506764916279
N            2.67162305360343        2.68305722795415       -0.86045296591033
H            3.91494932667121       -2.28508888543538        1.47895265268595
H            4.90914580773460       -0.86301727962950        1.38503528688895
H           -1.94115730785490       -3.21853595475733       -0.75703419179097
H           -5.38333790565723       -1.37005946631739       -0.16529982325413
H           -4.26602357463468       -2.63050160853048       -0.57487556635658
H           -2.82281538915285        2.84899377140699        1.18132075972853
H           -1.12325082781481        2.71679063677018        0.96184159681394
H            2.01840783602639        3.34454671308590       -1.24280038115528
H            3.65598785374331        2.88368642394779       -0.90661202435591
