30
 energy: -54.930718506260 gnorm: 0.000718266636 xtb: 6.6.1 (8d0f1dd)
N            5.06653399066770       -1.77765560068323       -0.48116669854158
C            4.11347024008861       -1.14834891323919       -0.34271763618347
C            2.93654711124857       -0.41580705578793       -0.18562441843232
C            2.82556938004940        0.91366844394220        0.22558721864807
C            1.47368117818115        1.27015546273594        0.20162934014756
C            0.84447472967203        2.49370905607284        0.47475550613659
N            1.53370802625695        3.56248922166251        0.93254099921782
C           -0.52368508271729        2.60120175601551        0.19022058737591
C           -1.27576668860026        1.52628145072226       -0.24598477869900
N           -2.44544188087638        1.78889194973117       -0.83980608771100
C           -3.44497311291324        1.00635396621998       -1.07633749955903
N           -3.80559778609898       -0.12026194234711       -0.48308160554398
C           -2.98096496479664       -0.92243702717221        0.15954885651120
N           -3.58587316528469       -1.90213979387566        0.86234633311125
C           -1.54227373677009       -0.92578394946058        0.10193049466706
C           -0.96021083527060       -2.10028137672404        0.59387877158861
N           -0.53924229404096       -3.09398898396818        1.00109713434849
C           -0.69929255757185        0.17046216075156       -0.18060827298154
C            0.69965891408160        0.10640527228440       -0.17470297732246
C            1.63600871727669       -0.93466952596301       -0.44343591874080
N            1.44222288683929       -2.13231436887710       -1.03460561617303
H            3.65597510547435        1.53676951266908        0.50505260172617
H            1.08732741705369        4.46170556796039        0.96907202427038
H            2.53582255891625        3.52606256315234        0.98014826038395
H           -1.00420586754675        3.56677673508823        0.23282036074797
H           -4.17939878023917        1.39232675529087       -1.77822579743216
H           -3.06240418022448       -2.64375020184584        1.29409273188703
H           -4.58952950296523       -1.94368639287392        0.83351360079229
H            0.53965208857710       -2.57409736582778       -1.02022393678352
H            2.24147350553301       -2.74432799815342       -1.08868671285552
