27
 energy: -46.951116113070 gnorm: 0.000673710784 xtb: 6.6.1 (8d0f1dd)
N            2.71129317370978       -2.97952578296040       -0.11886763509739
C            2.34770205491303       -1.88543446218111       -0.08282316763447
C            1.98960669928492       -0.54717735743704       -0.04406134824400
C            2.93664115979710        0.53125264145772       -0.03024972837043
N            4.27432547523642        0.38752755445581       -0.03010911936366
N            2.35289221054558        1.72990309430226        0.00810716106009
C            1.02696352814012        1.49689477130154        0.02712818466597
C            0.00312100775932        2.41665434149557        0.10196658097475
C           -1.32592136941430        1.99189521155465        0.07740897048824
N           -2.31772871157756        2.96126213381137        0.10537566119274
C           -1.66963482997722        0.62170543045931       -0.02267345275741
C           -3.00306315437150        0.29597611675756       -0.32926104621732
C           -3.68380883463857       -0.89947374554699       -0.23960889362892
C           -3.14661170254576       -2.08966854547360        0.27601983384980
N           -1.90035208709993       -2.45417626981491        0.26856702458558
C           -0.82723110595688       -1.76174246562766       -0.04823358922150
C           -0.59459257009788       -0.38566001442116        0.00140655280520
C            0.72824558996718        0.07603849517587       -0.01571709434228
H            4.84306152622303        1.20992772347514       -0.11746442123016
H            4.68014862898488       -0.51992998456367       -0.17207821616708
H            0.23211183803334        3.46967955394249        0.17048632226814
H           -3.16939521233288        2.73527445163834        0.59276498302066
H           -1.97954354967017        3.88930615175395        0.30817595898334
H           -3.61011498828001        1.13990684484465       -0.63740493268317
H           -4.73998068621040       -0.89246760932698       -0.47191604309172
H           -3.83134719830357       -2.83596087462208        0.66762554905681
H            0.03265707827623       -2.39250634455171       -0.25551636180230
