28
 energy: -46.672321735060 gnorm: 0.000418840936 xtb: 6.6.1 (8d0f1dd)
N           -5.73266354925634        0.72828261158036       -0.19141181107590
C           -4.62259485297409        0.43943577205654       -0.10976503644904
C           -3.26048347553255        0.09768897655638       -0.01673425355910
C           -2.92708539530005       -1.24752164338992       -0.21732708120891
C           -1.69794638377652       -1.84838415448879       -0.13660979451512
C           -0.39628945912219       -1.31333921388054        0.02962207080076
N            0.54015468107411       -2.26504715371766        0.07589969522013
C            1.82829365415244       -1.95577211346713        0.11788157339729
C            2.27261644580751       -0.66068355400424        0.03752146527699
C            3.56364749617819       -0.05847774825035        0.00305821015683
N            4.74574381553894       -0.72939164649929       -0.01236452563550
C            3.38684938715603        1.31957156017431       -0.10329348605629
C            2.01974296922709        1.62217565205775       -0.11930147676091
N            1.51213300703289        2.88710010427740       -0.23276092844713
C            1.28621430375437        0.40420454783283        0.00108066589371
C           -0.06868539391299        0.09919998522218        0.10440816162049
C           -1.01316653594213        1.13452460279569        0.37265842093313
C           -2.37601634794366        1.14093843456112        0.32423164691935
H           -3.76641086432280       -1.90182162011896       -0.42583667750356
H           -1.67753380089657       -2.92387780703995       -0.25837831647235
H            2.50072477879824       -2.80359191313838        0.18750291582006
H            4.74296788984570       -1.69513224331898        0.26716503462503
H            5.58779712481985       -0.20938685064789        0.16690194178615
H            4.17689654198908        2.04525702016217       -0.17589379797282
H            2.17651301050789        3.59311789331915       -0.51150399824180
H            0.60144979298561        2.97747634207271       -0.65623540783842
H           -0.56078486777445        2.06242920026413        0.69677682282116
H           -2.85850539861328        2.08303192672933        0.56338036736600
