27
 energy: -42.953942224961 gnorm: 0.000487824982 xtb: 6.6.1 (8d0f1dd)
N            4.98369860633199       -0.69157757852060        0.08055983817454
C            3.97849177074475       -0.13012132207440        0.07431224691660
C            2.75283754314037        0.52913859606339        0.06141201472122
C            2.53901858131479        1.92486091546218        0.07890984308572
C            1.18372127458628        2.18226759993833        0.04009893009234
C            0.48591560050434        0.95114315760046        0.00290777686947
C            1.48574441202673       -0.09084942942930        0.01567567635675
C            1.11322903549866       -1.41907742043090       -0.07813009162077
C           -0.23010094636160       -1.76485989310334       -0.10974651691327
N           -0.56826847746167       -3.11713095543037       -0.16722800435899
C           -1.25171862402502       -0.77848178938326        0.00023654693036
C           -2.55325289972481       -1.24207526391469        0.23385865675112
C           -3.77789420406875       -0.59939232188371        0.28667014270228
C           -4.07137020418571        0.73311890915851        0.04304898750233
C           -3.16461679552640        1.75646891493317       -0.19445524525898
C           -1.78504879481705        1.70328126392664       -0.18433869424225
C           -0.87787484104898        0.63836765920482       -0.04934901144347
H            3.32161157490241        2.66110075627325        0.11953209185148
H            0.75202093854253        3.16623271695032        0.05179817614964
H            1.86894770932500       -2.19212804181568       -0.12417949467437
H            0.23083346237211       -3.71689302022397       -0.31283568335059
H           -1.33456928920911       -3.35529905075064       -0.77850350706646
H           -2.60825859892858       -2.30453004546492        0.43684664925164
H           -4.62487175332243       -1.23433309554054        0.51607906725389
H           -5.11801847126273        1.00835742384785        0.05890179704199
H           -3.59320188010214        2.73679042697316       -0.36308103931308
H           -1.30168521704501        2.66309232253426       -0.31305876020923
