31
 energy: -53.055042622346 gnorm: 0.000611528703 xtb: 6.6.1 (8d0f1dd)
N            4.01508785392110        2.03466548656141       -0.61265991184558
C            2.91917278787833        1.32790326026891       -0.21976287599427
C            3.10804858198688        0.01081142907606        0.20847443666806
C            2.14993867919574       -0.97496413138886        0.41413199568071
N            2.58868028984592       -2.12749481171679        0.97142618213541
C            0.75714801444991       -0.89571675233811        0.06597641728354
C            0.01461973119157       -2.08707110330413       -0.19355565505060
N            0.66824865399205       -3.33235364708666       -0.35938506543969
N           -1.28953569116248       -2.17207559064659       -0.31468588758129
C           -2.00193381136123       -1.05266912240367       -0.16614326894200
C           -3.36838231827423       -0.80832319586785       -0.18025857952358
C           -3.49260411649410        0.58127277425909       -0.03601281760706
N           -4.66370111356716        1.28722840019802        0.07894575063856
N           -2.30749888972454        1.21270614617620        0.06475473695970
C           -1.36473423729881        0.23899336056288       -0.00180921583060
C            0.02125170819507        0.33749086544091        0.06786561942245
C            0.59442228248697        1.67170340865721        0.14214942627472
N           -0.25657976283590        2.65195699064357        0.43335392747228
N            1.81966718843926        2.06137276822596       -0.16183854176618
H            3.85521641665570        2.95590894861861       -0.97959853456046
H            4.86713541311138        1.56029623144136       -0.84889990958045
H            4.13762271901654       -0.28675423994628        0.37289070246284
H            1.96213217363845       -2.91752510123973        1.01751709581986
H            3.56794487321170       -2.24968036072808        1.15666525978174
H           -0.03517630817202       -4.02107647520687       -0.60366721149941
H            1.39757016117496       -3.30654202811765       -1.06249018632004
H           -4.16727252602531       -1.51542866794187       -0.27753663619141
H           -4.58481930305217        2.27645952621512       -0.09510807370949
H           -5.48106811412225        0.84749100278638       -0.31110182609908
H            0.08589492675495        3.59672829735104        0.37790127469375
H           -1.27004779995619        2.40082396315024        0.40517492404773
