25
 energy: -48.304964613812 gnorm: 0.000970241826 xtb: 6.6.1 (8d0f1dd)
N           -3.44392519297474        2.77203557652975        0.82696577367448
C           -2.77267664513975        1.87678023065951        0.57636635559439
C           -1.96600798621093        0.75064189087895        0.30316339739544
C           -2.50722031556808       -0.53072529556746        0.41327695557229
C           -1.73342534225157       -1.61421290367899        0.05285502581597
C           -1.97005749113953       -3.00744347937822       -0.02848210995477
N           -0.89193544247945       -3.65868187828520       -0.44475103706936
C            0.08842999107446       -2.76015470749505       -0.61650068868604
C           -0.34356034047035       -1.45717290168655       -0.31397376301180
C            0.26457473419407       -0.19192045103200       -0.27142935948955
C            1.64391674341043       -0.01811797229291       -0.09583930459286
C            2.46201291064607       -1.15257342105720        0.07950971365352
N            3.21236129586679       -2.00828666461028        0.23971716637297
C            2.32985947248541        1.23647297140302        0.12269861786970
N            3.48532492718298        1.21568262931652        0.80194325738501
N            1.98559352025497        2.40656198010204       -0.38129207279885
C            0.80895706256039        2.68993072055217       -0.89755532206538
N           -0.34297124729526        2.16586028080615       -0.61042539163410
C           -0.64734417985594        0.96235997803718       -0.16419711360787
H           -3.53715392052445       -0.65017482524455        0.71839411930199
H           -2.87812905026230       -3.53037679566696        0.20868440930499
H            1.04377992704282       -3.07556164382324       -0.99021864695675
H            3.90085212153559        0.35124159912018        1.10680857933894
H            3.99790138260183        2.07711749806359        0.88803421595378
H            0.78008639371648        3.57074105074994       -1.53000904146445
