34
 energy: -62.610232061935 gnorm: 0.000818318861 xtb: 6.6.1 (8d0f1dd)
N            5.57937365264046        1.05255893207460        0.89713131013697
C            4.54414138468175        0.64265452624261        0.59769184221598
C            3.28455394920049        0.13694281269290        0.24041749720437
C            3.14357581443771       -1.27290294503323        0.27222373699336
N            4.23290755860382       -1.98650844958535        0.65290930353756
C            2.01845510556012       -2.00634180749985       -0.09463557620134
C            0.69097180749951       -1.63835743073921       -0.30950906468635
N           -0.10329091666231       -2.69142502195706       -0.58168951063498
C           -1.40970870537915       -2.56310385941386       -0.60166389153797
C           -2.03328827048736       -1.38015086222413       -0.25513717777701
C           -3.39370637395261       -1.03508088074887       -0.05831896317775
N           -4.45899486566934       -1.84274017322986       -0.19603641178910
C           -3.43308280956824        0.32305980998091        0.32669078020015
C           -4.58612203217111        1.03146369924272        0.65776940413566
N           -5.54469664522511        1.60720110919886        0.93102426318515
C           -2.11852709942511        0.84886803654444        0.34217265953391
N           -1.84327995012758        2.06962524387317        0.83668623145686
C           -1.21950555699898       -0.20067567057565       -0.04647236665466
C            0.16245989838648       -0.28665948844925       -0.22381393861064
C            0.97171304050284        0.87161958175538       -0.45799982662081
C            0.30101150647137        1.95458400328659       -1.04060889271471
N           -0.21840741081317        2.85052571142113       -1.55088965312939
C            2.34634925086298        1.08439859737538       -0.23545927121691
N            2.81608909386616        2.34311519065047       -0.43277437735148
H            4.20464549761746       -2.98921976176570        0.63451809892397
H            5.09847228082679       -1.52457817826323        0.87249502338820
H            2.15917935501522       -3.07953843999916       -0.13477778983791
H           -1.96330177691209       -3.45738492903381       -0.86322786963407
H           -5.38066393855813       -1.49536757305123        0.00278351139475
H           -4.33815609986228       -2.80752736650277       -0.44270193241612
H           -0.95429327007090        2.50701277396867        0.67021364628718
H           -2.62577077835221        2.68163132740439        1.00758478004243
H            3.80019314586174        2.53014406416441       -0.34636529887921
H            2.22140125060017        3.04882272349593       -0.83157757796628
