28
 energy: -50.676569895027 gnorm: 0.000724182441 xtb: 6.6.1 (8d0f1dd)
N           -3.27850440066518        3.00014808450139       -0.05750071507979
C           -2.42991988540017        2.22607682160110       -0.02465729464105
C           -1.34313441384085        1.33280404301047       -0.00206620270332
C           -0.03528444933153        1.83290817922709        0.04438574819242
N            0.13967607383636        3.19501560901832        0.11207288158253
C            1.08967202012641        0.95541179576050        0.02869092231425
C            2.36737135118878        1.50583502364695        0.20781651088426
N            3.53275864944039        1.05144505002705       -0.19232195342887
C            3.78219478454863       -0.16794880328155       -0.60857625547413
N            3.20368455945680       -1.27355866996121       -0.22887418630530
C            1.97283527225086       -1.38622710580823        0.25114759592407
N            1.72787513609320       -2.50877769374834        0.93651389950660
C            0.87297865587993       -0.48942186396277       -0.00928342139965
C           -0.42638937547788       -0.97405070207307       -0.06818093790992
C           -1.02336256078019       -2.24538523462779       -0.15109367484515
C           -2.39734168892285       -2.01295478922525       -0.20931566076946
N           -3.39313070442567       -2.93684812078801       -0.25225527887920
N           -2.71751497725716       -0.69049884461517       -0.13184099486626
C           -1.56403629562367       -0.04894147211305       -0.07109188450419
H           -0.69402850495180        3.74538879939335       -0.02693311418992
H            0.98486127990104        3.59849259496761       -0.25006251817620
H            2.43352838882520        2.49943103093147        0.64115578338576
H            4.67429762388271       -0.28483163368553       -1.21535106398137
H            0.80607240086111       -2.68837948250700        1.29753813335888
H            2.48360412551368       -3.15064643408368        1.10395506237065
H           -0.55454133974912       -3.20527639057112       -0.25573053837903
H           -4.30695075825097       -2.57198382495199       -0.46374273226837
H           -3.17492321742166       -3.85404806657901       -0.60216716651619
