25
 energy: -44.301396667350 gnorm: 0.000745479304 xtb: 6.6.1 (8d0f1dd)
N            5.01837772709403        1.42606483839533        0.00187972653781
C            4.06870202265645        0.78483624811841        0.00074852395623
C            2.89651550633143       -0.01519709273180        0.00089490808247
C            3.11098853905264       -1.40649532968924        0.00081793566790
N            2.24011128402810       -2.38648953908717        0.00005805064281
C            0.93116047148191       -2.30146121688512       -0.00046234351760
C            0.01085783778904       -1.22964856136436        0.00011627734605
C           -1.34048428035825       -1.59286662626742       -0.00005290434736
C           -2.37557454293293       -0.66088213016294        0.00043856787585
C           -3.71952760040899       -1.10120270266837        0.00165940221753
N           -4.80888388463868       -1.45771974190184       -0.00137510146171
C           -2.07711674566374        0.69865988489319        0.00100282748852
C           -2.87490593682490        1.84516421300318        0.00162263694492
C           -2.02382497655931        2.95052714478852        0.00207729233844
C           -0.69668285251092        2.52671360384905        0.00183241051692
C           -0.67708517010681        1.12103968619032        0.00117574469827
C            0.36890407329075        0.19133994754325        0.00078431485731
C            1.68845681487437        0.67031439422452        0.00088831602716
H            4.14414390098072       -1.74110403162983        0.00129193681678
H            0.47093707786405       -3.28758240858388       -0.00138406593410
H           -1.59398278258977       -2.64321417774693       -0.00041811516798
H           -3.94848826128460        1.86295600994497        0.00166851538793
H           -2.34231947024658        3.97708838105413        0.00256147448874
H            0.15261505187271        3.18428988393635        0.00215652999930
H            1.77946564540929        1.74972496667765        0.00112761203784
