30
 energy: -50.127342692649 gnorm: 0.000412220457 xtb: 6.6.1 (8d0f1dd)
N            0.08221766630401        4.50517538319387       -0.17893161939740
C            0.17816988285933        3.35945424340021       -0.12801908254859
C            0.37173015656098        1.96778972064812       -0.07561430146711
C            1.70623315707050        1.53086456208270       -0.07729526306738
C            1.95266777980102        0.18700564543868       -0.02090725334759
C            3.15271517604255       -0.59357411156580        0.01898957244653
N            4.41190521036181       -0.08206896446566        0.06192829319817
C            2.79989643339795       -1.93882946173016        0.07788302930897
C            1.40153525324205       -2.04771279938155        0.06159918096550
N            0.63991239426637       -3.15516950847609        0.06095902725928
C            0.84526516262920       -0.73419691784140        0.00127830623110
C           -0.48758332153850       -0.34061052291275       -0.01071147899990
N           -1.38433591358975       -1.35311935111117       -0.05565337092285
C           -2.69711149835374       -1.33416945831311       -0.01875295929278
N           -3.25721967702464       -2.58312074900248       -0.08425762722733
C           -3.59696374574433       -0.25558960204945        0.13275617091633
C           -3.26550523539158        1.08276338792391        0.16369311937853
C           -2.02042404421360        1.67814108052403        0.07183746764245
C           -0.74372524762409        1.09150418624214       -0.01229018325945
H            2.49575275620599        2.26970065559687       -0.10871535011489
H            4.53895386989068        0.87964890257266       -0.20225583017072
H            5.18204352227973       -0.70361432745818       -0.11678590190133
H            3.48884306907421       -2.76253945789068        0.12511779075940
H           -0.35304121124925       -2.94657452770447        0.14146513510128
H            1.02805927816655       -4.04765302375961        0.31058280877251
H           -4.23847872026110       -2.66593593329000       -0.28334538549542
H           -2.66368262313073       -3.33842653856473       -0.38255434329362
H           -4.64474891016101       -0.51619700746883        0.19854966269462
H           -4.09956609931272        1.76859652047157        0.25654253024018
H           -2.02133146315763        2.76131463729131        0.08894227979107
