27
 energy: -47.767521989368 gnorm: 0.000667455913 xtb: 6.6.1 (8d0f1dd)
N            5.78611069979940       -0.75467752903253        0.00192593894273
C            4.66305034641264       -0.51276176627845        0.00321567027492
C            3.29471452627231       -0.21374140340104        0.00159562629830
C            2.75022726449993        1.09079854219512        0.00051602478539
C            1.36868946042659        0.96219781425704       -0.00004821127452
C            0.30720064084137        1.88689204180413       -0.00096548693987
N            0.49134486112936        3.21404077164140       -0.00150059412148
N           -0.96028836633092        1.47551327534088       -0.00127663092183
C           -1.29062110441286        0.18944516213144       -0.00079149751608
C           -2.69778831051159        0.00187503810600       -0.00124302150342
C           -3.43029055157320        1.21916202652117       -0.00141129560242
N           -4.07920053169353        2.16470075963860       -0.00356301334714
C           -3.47733494787529       -1.15093007334077       -0.00104449769904
C           -3.06828253426190       -2.46985084672639       -0.00029921602179
C           -1.76210449416602       -2.95263313998455        0.00053696739191
C           -0.57294480319049       -2.25723980707992        0.00075090285168
C           -0.29706349852858       -0.87953706158924        0.00015142189973
C            1.04063441115733       -0.44820428212599        0.00051636351880
C            2.26013263830664       -1.15026718296250        0.00144869498353
H            3.32553450033111        1.99829362252082        0.00042430284023
H            1.41303538427728        3.61052325434821       -0.00150642557351
H           -0.32108750198898        3.80686730291553       -0.00227318965667
H           -4.54730601543910       -0.97647418947488       -0.00155201632971
H           -3.85315434441140       -3.21449391235842       -0.00031117462634
H           -1.66792554470584       -4.03178769259514        0.00112955992048
H            0.31505584204513       -2.87661507860489        0.00153075342200
H            2.40302984529061       -2.21457032046560        0.00217663110422
