28
 energy: -50.690658821878 gnorm: 0.000476395031 xtb: 6.6.1 (8d0f1dd)
N           -2.22435205764719        3.42372844248989       -0.28679401749242
C           -2.11972562896881        2.27919146386112       -0.18733772143019
C           -2.07968206085678        0.89855296428100       -0.07292873680373
C           -3.25020883332364        0.07826585020060        0.05793809552399
N           -4.51365093315470        0.53725280987733        0.11790992562407
N           -2.96515425401179       -1.22213052615931        0.15085600454083
C           -1.62418691044810       -1.31080948724493        0.09226937507100
C           -0.84538517675096       -2.44556069616913        0.16035647945727
C            0.54268778960434       -2.34926310693774        0.05787213140336
N            1.27645003476808       -3.51687922771813        0.08286108865758
C            1.18936182964449       -1.09734521899182       -0.10238569396549
C            2.54956783405122       -1.08421287465517       -0.46271872973224
N            3.45648760967969       -0.15131739552537       -0.37767898173690
C            3.23560090682704        1.10944828672201        0.01991492018124
N            4.29557277447712        1.73880117541168        0.55081755947852
N            2.15796425976620        1.85711391368428       -0.17905958009172
C            0.93323700465324        1.40976027045095       -0.31952285912119
C            0.39200802650202        0.13200372544356       -0.11378508376998
C           -1.00188526562798       -0.00126843385789       -0.05365162777603
H           -5.26278356052610       -0.13099763083868        0.10617557851688
H           -4.70247536745966        1.50297294572239       -0.08372091751594
H           -1.31191299976585       -3.41145838304112        0.28400794867639
H            2.22099881907776       -3.48294016294051        0.42457857849410
H            0.76302566381707       -4.34092627141825        0.35051992940293
H            2.95781668003524       -2.01612798753238       -0.84735632841272
H            5.18091177680924        1.26612436325593        0.59198844955514
H            4.22713740967938        2.72192287466949        0.74661721506654
H            0.22402003115801        2.19931448026208       -0.54955656420288
