29
 energy: -50.398966847964 gnorm: 0.000455244340 xtb: 6.6.1 (8d0f1dd)
N           -2.87804228025915        3.30837981222334       -0.41600009426194
C           -2.73927983742773        2.17454550073768       -0.26223018269700
C           -2.60675236167906        0.80364390783725       -0.07627530689639
C           -3.68794086873232       -0.09747518656746        0.10084826575724
N           -3.30733772571042       -1.35054948491390        0.26573911785080
C           -1.95526925954924       -1.33525006546605        0.19992487655719
C           -1.07481997335149       -2.38067819207007        0.36361301763558
C            0.29527060157822       -2.16949102377956        0.22205239347744
N            1.14285102867705       -3.29438017526790        0.35462698631118
C            0.82369526897410       -0.89331429056020       -0.06205778540201
C            2.21259440431326       -0.76315478019380       -0.46847810880508
N            2.75975815655276       -1.81557323517461       -1.11033844714896
C            3.04075280245702        0.32071821287933       -0.22219620216845
C            2.66696415213046        1.58305340639456        0.26472557729213
N            3.60127482444798        2.38544698428405        0.82044709788620
N            1.48018976770190        2.15612978420535        0.10167749345838
C            0.34938458870576        1.58798406203709       -0.19589259464895
C           -0.06290387405642        0.24175942443663       -0.09669136364463
C           -1.44931974319592        0.00086133920340       -0.02760899702548
H           -4.73080954755011        0.16743909136625        0.10517317546980
H           -1.44701190721375       -3.36979657264610        0.58847593732163
H            1.94848699958232       -3.12546236887267        0.94406268347102
H            0.62812912425938       -4.09962513876493        0.68753317257898
H            3.72459326249195       -1.78995969863909       -1.38784368262629
H            2.23315581070271       -2.66993576070720       -1.20465225314632
H            4.09621894079009        0.17257428581565       -0.42059460269812
H            3.33813942204336        3.33082947038107        1.03745610318490
H            4.56898407954824        2.12165982215280        0.84627114319344
H           -0.42958025913414        2.30521747307115       -0.43555303187644
