29
 energy: -50.401323622207 gnorm: 0.000548178813 xtb: 6.6.1 (8d0f1dd)
N           -2.69279253936084        3.09387234182910       -0.20524668534602
C           -2.61214536508049        1.94260338381263       -0.17475092072835
C           -2.50099478186784        0.56054081847817       -0.12625337791657
C           -3.55895535987632       -0.34545401578818       -0.34181213923763
N           -3.18101272080357       -1.61587305351454       -0.33592604720069
C           -1.85243565957687       -1.60553336646146       -0.15329568851668
N           -1.06200307702617       -2.66768534486512       -0.16798662476288
C            0.21990624824189       -2.46118363271772       -0.03103088146471
C            0.85024075891020       -1.20874036937548        0.17955824568276
C            2.28881119464744       -1.20007754606062        0.24849167571510
N            2.90244415046596       -2.33110547139613        0.66467598864391
C            3.10328281960524       -0.17967634842612       -0.21948411197962
C            2.80149943858203        1.17064744861787       -0.41960759589762
N            3.77717566124025        1.95259130062808       -0.95477623013936
C            1.67439578802953        1.82629033367686        0.09405035247832
C            0.50530141302601        1.27545637976660        0.57854849187477
N           -0.29100117480392        2.03135703722761        1.35506008376652
C            0.02346174131729       -0.05672356618538        0.24859038509403
C           -1.34283568174821       -0.25104166546660        0.02088606903825
H           -4.58937744615295       -0.08118730141660       -0.50306977663756
H            0.82132665866134       -3.35255400371921       -0.16012600765496
H            2.36991752906415       -3.11580315334804        0.99294164366633
H            3.90171505706474       -2.41308970913597        0.60964686974176
H            4.13874687505879       -0.45048804196021       -0.39437703109270
H            4.56623919289772        1.52442878711465       -1.40470961087057
H            3.56983211668203        2.90712489443591       -1.18862240195736
H            1.75154632212284        2.90509338618808        0.15951872505878
H           -0.13923504598217        3.02472800690138        1.41408500616817
H           -1.21763016163800        1.70685208736060        1.57885665007482
