27
 energy: -46.954658907285 gnorm: 0.000299602748 xtb: 6.6.1 (8d0f1dd)
N            0.75224523790179       -3.93385813120329        0.09430274879921
C            0.53098143356725       -2.80520645425061        0.05161923627764
C            0.15091800415773       -1.45209489306771        0.01480718112975
C           -1.24993736952064       -1.20179672538552        0.03351341723559
N           -2.12937302825892       -2.22959710545814        0.07105953659165
C           -1.65118135302506        0.12662477123655       -0.01929213361136
C           -2.90152809603458        0.78154502162244       -0.05793035430296
N           -4.15250130847428        0.22595386977823       -0.09652022738086
N           -2.74870420827488        2.12067898635247       -0.01468543786718
C           -1.44533044679471        2.37161829781332        0.02750078715307
C           -0.67306414576877        1.19123326338657        0.01220529338924
C            0.70679876968838        0.95288806547764        0.01528583925482
C            1.58508927812081        2.05409956034314        0.05273503244955
C            2.96598728879209        2.11608294204269        0.04361042879888
N            3.89389198235241        1.17878673490003       -0.02731268638014
C            3.65174223482969       -0.11928579986301       -0.08128781795895
C            2.47879907380251       -0.84870263673975       -0.06152709669387
C            1.12765956715505       -0.43606338521438       -0.01247755250115
H           -3.07529102023632       -2.04024143322992        0.35381051285332
H           -1.77234063047082       -3.15956339343153        0.22594170979669
H           -4.87658954715584        0.91930756278049       -0.22161111048703
H           -4.26711324382309       -0.59315424024467       -0.67465942174029
H           -1.10765768280254        3.39102553594497        0.05779680002679
H            1.08823407633320        3.01424051477155        0.09765061505436
H            3.39614047833310        3.11337252498639        0.09349228025357
H            4.56700017642828       -0.70250789681637       -0.14402290891552
H            2.61647008747815       -1.92366557413167       -0.09735343182490
