28
 energy: -51.480454354213 gnorm: 0.000569926627 xtb: 6.6.1 (8d0f1dd)
N           -4.40231761443155       -2.59779369589563       -0.00622947534447
C           -3.43703030521932       -1.97212533976499       -0.00453369124821
C           -2.25845696157621       -1.20313198615775       -0.00342446002211
C           -1.06804280486221       -1.94098180823559       -0.00570293047978
N            0.18876466779216       -1.60389489687773       -0.00538390539096
C            0.71854691913550       -0.35738931401438       -0.00262396001729
C            0.04856550945850        0.93876142854529        0.00066809494303
N            0.73142706039668        2.08352635353376        0.00292392464797
C            2.05698391219360        2.11747917967129        0.00248688349733
C            2.81073518311420        0.96607312546749       -0.00033924564163
C            4.20058150974051        0.65926744315359       -0.00153976894311
C            4.35889681765732       -0.70822566633062       -0.00475092377489
C            3.08358880675071       -1.32520256700139       -0.00570328367837
N            2.76083043158819       -2.61717862296820       -0.00857246309012
C            2.10344892115640       -0.28291336319942       -0.00293071859678
C           -1.35888604318047        1.14231868814099        0.00179098517023
C           -1.74174913068039        2.50346290408778        0.00395199156459
N           -2.14909429438672        3.57833986631518        0.00913845226636
C           -2.41564768269181        0.21260286363672       -0.00000550049687
N           -3.67685705755693        0.68855919299429        0.00149737799225
H           -1.21046771132579       -3.02135536716680       -0.00828392015902
H            2.49183578992104        3.10840986268319        0.00451944690842
H            4.99062752577614        1.38743978434253       -0.00015954768870
H            5.29425375034633       -1.23708904960080       -0.00630586187873
H            1.76295681949896       -2.81094885296026       -0.00872284322452
H            3.45654376030135       -3.34244182311942       -0.01062140045466
H           -3.83976252089009        1.68188570557105        0.00395493375606
H           -4.45813695352615        0.05439542934987        0.00034513258396
