32
 energy: -59.171982873603 gnorm: 0.000869120659 xtb: 6.6.1 (8d0f1dd)
N            5.60156604332083       -1.54806425787856       -0.44023385421181
C            4.63873195838744       -0.93704669986627       -0.29306929010401
C            3.46656863435876       -0.17380802036853       -0.10325679560419
C            2.28494885633965       -0.92871994211127       -0.07047433151289
C            0.95214458062044       -0.58933104416355        0.07563206889104
C           -0.00638357861921       -1.66174061783932        0.13070335299658
N            0.39932164855383       -2.97048476507029        0.19096766790491
C           -1.38118255416736       -1.40874048417154        0.06307908564246
C           -2.28920776894898       -2.48414855526286        0.10865459739992
N           -2.99502430699813       -3.38871148193541        0.16647563828143
C           -1.85291506022889       -0.08833754043568       -0.00698613740925
C           -3.10945193408608        0.50588458736838       -0.06582391309010
C           -4.38094058403507       -0.04993342032398       -0.13041233877888
N           -5.46584750653791       -0.43158482224995       -0.18435922383858
C           -2.84201078027792        1.92433460800341       -0.03424751206740
N           -3.78449280099652        2.87883135254763       -0.09239422760139
N           -1.54417576136947        2.20097480017061        0.04105208131386
C           -0.90453957616652        1.00500618063672        0.05290063394925
C            0.46753073949161        0.78972535820339        0.11005848938959
C            1.26083959206470        1.95288288925333        0.19633479755872
C            2.60962162647439        2.15803952185615        0.20658789013254
C            3.65230993206520        1.21694195837321        0.05581220197756
N            4.91316528733043        1.69190591254788        0.05178371707808
H            2.48486234324482       -1.98438819624067       -0.21545267427681
H           -0.33683601437757       -3.65151585406146        0.29893272574966
H            1.26786539904859       -3.20582542241384        0.63742202433682
H           -4.75582450676121        2.62426159223016       -0.08581601667519
H           -3.51324912181395        3.84107950146138       -0.00531788281565
H            0.64489473957495        2.84234086046142        0.26541107754531
H            2.94091901463523        3.18453923771785        0.30743557893393
H            5.08596188790285        2.67759486498281        0.14097825779260
H            5.69397155977118        1.07021395608071       -0.08096106048727
