28
 energy: -46.683614411604 gnorm: 0.000374775212 xtb: 6.6.1 (8d0f1dd)
N           -0.61749021380583        3.79970100606642        0.01824280949226
C           -0.25643264778405        2.70557233625867        0.00812256143325
C            0.26697161760186        1.40330948541879        0.00037284152517
C            1.67652170895753        1.30482750587895        0.00106861830154
N            2.44862290602638        2.40767703480427        0.00286782392572
C            2.22892866625813        0.01932153163821       -0.00099673288581
C            3.53355481206473       -0.47958890383281        0.00112505989049
N            3.54116470580325       -1.81957106375859       -0.00067872657798
C            2.27325221275475       -2.22502684000577       -0.00367796940373
C            1.37382260527093       -1.14037760766066       -0.00396284792240
C           -0.03187946153237       -1.05626786937529       -0.00482693276634
C           -0.75870462147259       -2.25044142193159       -0.00259032755351
C           -2.12098248923666       -2.50074699145463        0.00198904252205
C           -3.17915460108316       -1.61995260512984       -0.00124304387459
C           -3.12309006907576       -0.21705979934993       -0.01281474272798
N           -4.31347503214237        0.44415398361329       -0.05603961854050
C           -1.97284649266936        0.57405416060690       -0.01155651664290
C           -0.60746314272137        0.28058761435973       -0.00551749569913
H            3.44769121152207        2.31594742211701        0.00500504261945
H            2.03341426205260        3.32367692942230        0.00610879879868
H            4.46124957340561        0.06482553001894        0.00441076664708
H            2.05598733751782       -3.27768432565458       -0.00588288040744
H           -0.13836060017310       -3.13673239750127       -0.00159667723877
H           -2.39335686806786       -3.54937914740620        0.00908353866826
H           -4.17315031781355       -2.04971740216333        0.00193523585391
H           -5.17327995559584       -0.06064378936791        0.05874967703186
H           -4.33635053448830        1.44373057310322        0.03569746113456
H           -2.19029144297354        1.63819603188572       -0.01708612080317
