29
 energy: -51.205044691354 gnorm: 0.000548166477 xtb: 6.6.1 (8d0f1dd)
N            5.44304219826215       -1.33519029557908        0.15476923972136
C            4.31435280449650       -1.11250856653785        0.11347685549010
C            2.94382292532067       -0.81635961235059        0.05878681419771
C            2.04867233915085       -1.89215027675108        0.11825388770699
C            0.67848699892945       -1.88945175021503        0.06724614404398
C           -0.23784475657930       -0.81241333117404        0.00015779559055
C            0.16208462978773        0.59109646417615        0.01493071405777
N            1.38280667086691        1.10056725046688       -0.04690413628795
C            2.58137033084987        0.55782861309051       -0.07713222213340
N            3.56810704760555        1.46294206254371       -0.23726176245274
C           -0.84811343731840        1.58937717698845        0.07395698411075
C           -0.43791559007835        2.93703067557474        0.11934255104351
N           -0.14179233120994        4.04584778949964        0.15724031740917
C           -2.20818521446276        1.29281077336888        0.06396081508142
C           -2.59636194205119       -0.02523383545107       -0.00560731475590
C           -3.87941670115425       -0.63974558068706       -0.04890022154118
N           -5.06950265654593       -0.00311567708345       -0.00169900936161
C           -3.68102187793458       -2.03415154279352       -0.10621204676954
C           -2.32812114692713       -2.30132445958807       -0.09783375286098
C           -1.60866632957142       -1.07839290194701       -0.03593530174438
H            2.52032511751636       -2.86503403175914        0.20292100195401
H            0.21640373082013       -2.86621322760022        0.11085726533150
H            3.30529871835944        2.43235002482962       -0.28810576305858
H            4.53651253137802        1.19340260173563       -0.22904268149030
H           -2.92395948211128        2.10336285229936        0.10110353998165
H           -5.10330983323281        0.99687888414614       -0.09086522107125
H           -5.91537335867570       -0.52134998319659       -0.16064570495344
H           -4.46844229911240       -2.76414138360843       -0.15075118722534
H           -1.90331984267809       -3.28698032739748       -0.14318689591382
