28
 energy: -50.689945789887 gnorm: 0.000244819095 xtb: 6.6.1 (8d0f1dd)
N           -5.86265525107560       -0.49861518803589        0.05207339986961
C           -4.73763147794582       -0.26021963056882        0.03175385647295
C           -3.36077798905963        0.02105067393848        0.00731560291266
C           -2.97893281149733        1.37608093866464        0.07148986163113
C           -1.72247173640466        1.90782986931522        0.04594732527442
C           -0.46278072388052        1.24579501807320       -0.01703473176851
N            0.56987093105111        2.07887965655633       -0.05321204202669
C            1.84469883148127        1.66603139680481       -0.05581965721683
N            2.77912096988064        2.65597451760167       -0.10818683443905
C            2.14505778866862        0.31375444566343        0.04093873244281
C            3.29473289287380       -0.51953518341293        0.11639157241482
N            4.59225089810057       -0.12668743382383        0.16293768216650
N            2.97564224684169       -1.82596369703471        0.09840859092397
C            1.63789833954841       -1.90262814887387        0.03069020418876
N            0.93396329710133       -3.03099060873050       -0.00159599342541
C            1.03777705161128       -0.60150385968413        0.01063641973258
C           -0.28408286615486       -0.19851983947895       -0.03401347332188
N           -1.20880974415078       -1.19680404056230       -0.09416122616786
C           -2.50229847870800       -1.09246612394908       -0.08798859528889
H           -3.80187903136802        2.07926435725966        0.13851210944574
H           -1.63284667153720        2.98464679783625        0.09155607996120
H            2.41191794324500        3.57032893408107       -0.32025758007300
H            3.68722102096359        2.43550310555252       -0.48041037988600
H            5.24889037743178       -0.86642916460115        0.35752501436868
H            4.79732631826516        0.76935989551359        0.57326729391681
H            1.38895562789290       -3.92593211465689       -0.00766517185183
H           -0.07087355486870       -2.91300830983000       -0.05948014653570
H           -3.00380094030606       -2.05766347351781       -0.15733479342093
