26
 energy: -47.253257245387 gnorm: 0.000631804560 xtb: 6.6.1 (8d0f1dd)
N           -5.16827298761800       -1.09923906789299       -0.01173591143038
C           -4.08111875741142       -0.72522172831064       -0.00846078300311
C           -2.75871421303413       -0.23637788740323       -0.00399791507891
C           -1.74980265700075       -1.19238134679245       -0.00525803728174
C           -0.36242870842895       -1.05627860980769        0.00034657660779
C            0.39997050149039       -2.24250417880702       -0.00220133411124
C            1.77688029595600       -2.27148871961448        0.00411118008279
C            2.46500560126469       -1.06420840798285        0.01360693725561
N            3.76987883019667       -0.78447635346302        0.02587128986857
C            3.80184899634430        0.56596295514349        0.03417011335680
N            4.95897495163184        1.24375219044706        0.01286683768578
N            2.60790598373266        1.19828989730380        0.03080162735784
C            1.72411284182100        0.19458642247093        0.01636342454782
C            0.32229301766760        0.23236920640102        0.00892895793720
C           -0.27037771719257        1.49873105609501        0.00871375314476
N           -1.51113284188069        1.92119647437996        0.00551832591991
C           -2.62023136196613        1.18853383617179        0.00138521941199
N           -3.74153620288637        1.92808537481931        0.00201620251630
H           -2.11196738229334       -2.21597426990769       -0.01105286424721
H           -0.13765254952128       -3.18062975180171       -0.00935200146654
H            2.31404147590129       -3.20730362230516        0.00222392246594
H            5.81132749138989        0.73211809950898        0.15185044011150
H            4.93395873140422        2.23646984693456        0.15885181723236
H            0.44990556529801        2.31333990206673        0.01222893723658
H           -4.65479012185611        1.50553565321589       -0.00193861687244
H           -3.64031091820866        2.92897736483051        0.00454538265177
