30
 energy: -49.323569435983 gnorm: 0.000862752329 xtb: 6.6.1 (8d0f1dd)
N            4.68783346182150        1.01629658625433        0.00595860929472
C            3.45154828529381        0.43539378481815       -0.00709105087208
C            2.34095558637822        1.26784132909096       -0.01218088049722
C            0.97003959193760        0.93399055146118        0.01600628444019
C            0.04338501454522        1.97525198320236        0.02543975090979
C           -1.34379260659407        1.80345179123816        0.04234822176362
N           -2.18030729013506        2.90406177710625        0.04157036203665
C           -1.83254664064769        0.50155854630244        0.01285472499624
C           -3.13156648952113       -0.06766445339416       -0.04473625423653
N           -4.31314781991801        0.63411623702504       -0.11639555501481
C           -3.01790430990369       -1.46169166522290        0.01058843527335
C           -1.66752479823367       -1.80258561105026        0.07668049988572
N           -1.08063698212316       -3.00411964586656        0.14857749418060
C           -0.89880632546820       -0.58720663968468        0.05975702082548
C            0.47515295634868       -0.43599023835025        0.05663977154217
N            1.20260919394184       -1.58464801573290        0.08573888942805
C            2.50177369611218       -1.71916741881300        0.06684530345412
N            3.53211456999621       -0.90703792805877        0.02263242817565
H            5.46821431856739        0.39907079155100       -0.13745603411968
H            4.79209220742047        1.98648368401146       -0.23049832394808
H            2.56017803046593        2.33006088215196       -0.03971242669859
H            0.42350057040552        2.98945091041219        0.03000022198220
H           -3.05913650922975        2.77411899429746        0.51828621430137
H           -1.72653387581684        3.77688698217943        0.26753902843343
H           -5.11935231194209        0.07268274890466       -0.34897544663498
H           -4.26861336196500        1.50339123009387       -0.62657776353183
H           -3.84270284084585       -2.15117397133160       -0.01117369642104
H           -1.60554446021431       -3.85700095888098        0.07876236479238
H           -0.06189377477607       -2.96079086892680        0.12335994935248
H            2.81105721130247       -2.76784544219337        0.08641252609436
