29
 energy: -51.193212201936 gnorm: 0.000673539130 xtb: 6.6.1 (8d0f1dd)
N           -4.97429331943591       -1.75244149846403       -0.80495073139643
C           -4.06036526321816       -1.10140435366270       -0.56568010523339
C           -2.93133008240833       -0.30802526960925       -0.25882530636254
C           -3.07771529980258        1.07101701607483       -0.37120598630274
N           -2.27625753611582        1.99017233804197        0.11596881815276
C           -1.03266572965542        1.88868287578060        0.49588898844562
N           -0.56854378016333        2.87447852548239        1.27776110895383
C           -0.06845357763052        0.85583769724892        0.11478083170154
C           -0.45606961793939       -0.54039319576365        0.20291642244874
C           -1.75568172024358       -1.00315974950442        0.08741797492815
C            0.59973381791635       -1.52179816877295        0.33770623405225
N            0.28503625881026       -2.82948370972591        0.63239173892149
C            1.91275554032963       -1.17800160192810        0.05088038322134
C            2.92611983664942       -2.14992588132386        0.14004622933637
N            3.74112934636175       -2.95411495976218        0.23994307153147
C            2.25256535704823        0.15384511994269       -0.29556832928630
C            3.44161022231162        0.76599163905732       -0.60055366611571
C            3.19323358630515        2.16411311536718       -0.72558073010067
C            1.88045288860580        2.43235210708884       -0.45607789772472
C            1.22678152522752        1.18673017363826       -0.18523428190001
H           -3.99021174496494        1.46176255372290       -0.80805228131525
H           -1.19310553360779        3.61358623193190        1.55253774579013
H            0.40496646569064        2.91225792399499        1.52578450883087
H           -1.88300563256618       -2.07860987647050        0.11118556547825
H           -0.48176670051176       -3.00814356024311        1.25842520022612
H            1.07503935731579       -3.44588980233432        0.74894042341374
H            4.39494315290285        0.28708493174652       -0.72222211910467
H            3.94158816535490        2.89050114224908       -0.98786716235005
H            1.39981513673324        3.39149353159632       -0.52125769534024
