32
 energy: -54.352600877169 gnorm: 0.000720505455 xtb: 6.6.1 (8d0f1dd)
N            5.04700238655073        1.23456795917867       -0.82139260305695
C            3.99871699762752        0.84393000677357       -0.55704809081281
C            2.70782636804251        0.37583878452667       -0.23032707008094
C            2.51216376518104       -0.98184304765184       -0.39549395399186
C            1.42666496606049       -1.73012505121111        0.04968939938682
C            1.60946444043446       -3.12869282134207        0.06265383456949
N            1.74103166050234       -4.27057129782274        0.08125554859858
C            0.16760326210559       -1.25539026248882        0.48577067001252
N           -0.61271530403580       -2.13019765061648        1.14354659275227
C           -0.38943795435385        0.03831401176555        0.20286555264177
C            0.37642080357279        1.26565256874726        0.21604054219622
C           -0.32904382325359        2.49252876639993        0.17399244378465
C           -1.69276537977071        2.58198488523199        0.05076074973377
C           -2.45154586404184        1.42322605518877       -0.03924144703489
C           -3.80690302274636        1.20581669011889       -0.23246954682284
C           -4.00450576261253       -0.18301917262699       -0.34089100648312
N           -5.22156318600188       -0.79998689005456       -0.50360864698890
C           -2.78296762604852       -0.84139872467109       -0.16669930621860
C           -1.78102380612414        0.12444496496360        0.03033966924602
C            1.79347452626043        1.35054525038746        0.27594747924592
N            2.37293170571721        2.48566642810602        0.73010316263099
H            3.34685861983075       -1.54235961927009       -0.79995952075136
H           -1.52463441324168       -1.84042170836813        1.45597039036610
H           -0.30556156415417       -3.07689996120057        1.29353572918906
H            0.22706570960352        3.41794028515357        0.14616149139212
H           -2.16761485445170        3.55042609328158       -0.01452530405900
H           -4.56894941698377        1.95761521318158       -0.31890909195279
H           -5.19913797902297       -1.74212344949468       -0.86032160605563
H           -5.95796288544451       -0.22722699377625       -0.88352836416633
H           -2.66261983644708       -1.90458170074869       -0.27815771992929
H            3.36442833421574        2.61821368869016        0.62014056325341
H            1.82112611183085        3.24484394394920        1.08589100360540
