31
 energy: -53.862248721223 gnorm: 0.000752562756 xtb: 6.6.1 (8d0f1dd)
N            3.71057800288013        2.83217144121523       -0.49657892920881
C            3.07253589121987        1.89246128593098       -0.30241989196504
C            2.32243841598273        0.72139211372073       -0.08289269333068
C            3.09092423716849       -0.44350208996088        0.10236312363206
N            4.44043401782690       -0.31908709961012        0.08737546617454
C            2.58120926064074       -1.73016780728720        0.33423370275162
C            1.28719165272528       -2.17464153802788        0.25834083673711
C            0.06862128418870       -1.52340618541895        0.01610976662834
C           -1.06891289446271       -2.38185620981818       -0.14266248376401
N           -0.88135703104620       -3.75824218881575       -0.26758092622932
C           -2.36644713328391       -1.90641449182230       -0.12245896901690
C           -2.57643729221887       -0.54486637722341        0.00793189263946
N           -3.71080515553530        0.16812578117456        0.04313908664674
C           -3.28323068305075        1.43952674924315        0.10313675015258
N           -4.14709922741493        2.48363398599574        0.09770031585811
N           -1.95145464725902        1.61937221189735        0.11137456672427
C           -1.44651083558874        0.35803227926283        0.05455001530412
C           -0.12291521214037       -0.08831059930329        0.03091766906316
C            0.91211345405082        0.91033714433584       -0.00062792703228
N            0.49424702832114        2.17471877943379        0.00854080308009
H            5.02204476533009       -1.12805631074167        0.20683856678436
H            4.87195812636615        0.57271960363259       -0.08265295210545
H            3.33156249962065       -2.47960995755672        0.55636760132615
H            1.18585582127411       -3.23655510952002        0.44274631346693
H           -1.74031006824839       -4.25301831689280       -0.45815047390852
H           -0.13029846654102       -4.05289547694030       -0.87144153370859
H           -3.20390506600829       -2.58079291594604       -0.22297371500803
H           -3.79193773756864        3.37114792878307        0.40869686699419
H           -5.10193044931127        2.25978700191085        0.31888117843532
H            1.15754922355718        2.92961873394050       -0.05450031354373
H           -0.53650509837558        2.33125754051045        0.04124089612367
