29
 energy: -51.991009151610 gnorm: 0.000384298557 xtb: 6.6.1 (8d0f1dd)
N           -4.90579295044281       -0.96078979678296       -0.81901027337276
C           -3.82937060201491       -0.64932060460297       -0.56724786550520
C           -2.49971831934522       -0.28027830963012       -0.26398557479162
C           -2.23918793145890        1.08302997751294       -0.28445616580070
C           -1.06684622263054        1.77013966538336        0.00242568257174
C           -1.26804423005422        3.17447294539606        0.04504183329974
N           -1.50193906201008        4.29728847081606        0.07609553561240
C            0.26429552145426        1.29791741570749        0.15461981718250
C            1.25927981370382        2.25768547999366        0.36987319994486
C            2.61241912626718        1.96716367425518        0.33302661472327
C            3.00891021589125        0.68067087164182        0.02513226795362
C            4.27702499358954        0.10093828158175       -0.18856804556673
C            4.08707008724579       -1.23498990009570       -0.52564624107094
C            2.72816904321269       -1.52975736198501       -0.50197867220850
C            2.01843627744961       -0.35604216326071       -0.14162945178450
C            0.65396719177881       -0.10751450908414        0.04289100690149
C           -0.22010584965818       -1.20909253583313        0.25228558874784
C            0.38741315306907       -2.39920632994161        0.71886648280483
N            0.75213577002360       -3.38294161004392        1.18996328562098
C           -1.62104839401586       -1.33178907475614        0.11492820086086
N           -2.18306433355454       -2.54386463495615        0.31551800409078
H           -3.09687883437064        1.70741420058398       -0.51326828335467
H            0.95124070879206        3.27938951151775        0.53469980245966
H            3.33804543417220        2.75078986898363        0.49320824016813
H            5.21737264856804        0.61556499401003       -0.11970467070643
H            4.86442301459010       -1.93251673280903       -0.77761228725655
H            2.30193669162064       -2.47579599917693       -0.77705847526565
H           -3.17685557512841       -2.66160639526207        0.21177372961365
H           -1.62003577843588       -3.33405009195949        0.58136303043381
