29
 energy: -51.198039122663 gnorm: 0.000899576941 xtb: 6.6.1 (8d0f1dd)
N           -4.49452451710696       -1.30294820838416        0.30021492942087
C           -3.57414786833926       -0.61774333339806        0.23592197887835
C           -2.48669181582119        0.28512073040316        0.15897232312265
C           -2.86974176536546        1.58975731338960        0.42638576244697
C           -2.12893201181799        2.76066695872660        0.33655031656775
C           -0.81151283646433        2.86322415019282       -0.06241478308458
C            0.13080649067943        1.85474343178941       -0.25227425130731
C            1.32806225831198        2.33261083845256       -0.81275543500520
N            2.27724489910327        2.77282369535332       -1.29435179754096
C            0.05806904732805        0.44194522005258       -0.02093086990337
C           -1.19348749913465       -0.29801887179682       -0.07893451411341
C           -1.16269715028852       -1.66363112855375       -0.32032616613671
C            0.01612316343103       -2.42196840984987       -0.36052342903323
N           -0.02346858625505       -3.73969584148875       -0.63918342881915
C            1.20346706065338       -1.75426691033849       -0.05120785908489
C            2.51698032365460       -2.18312849129282        0.16724062140188
N            3.31467245310154       -1.17787988950616        0.51938507810385
C            2.58387248013125       -0.04903544813617        0.50358586402875
N            3.15278974085491        1.06886908525977        0.99385025427494
C            1.21491236074944       -0.32025810506222        0.12766375505758
H           -3.91521954103329        1.71147049353524        0.68792898333102
H           -2.65581925485543        3.68479662171220        0.52823743440791
H           -0.44335636413703        3.86679191061052       -0.24706028546260
H           -2.09799341377419       -2.18701532183465       -0.45815467444125
H           -0.90652611762666       -4.19988170399472       -0.77005632776648
H            0.81277512907208       -4.29168070021566       -0.59071481335930
H            2.91163418575771       -3.18135981499659        0.10167836759267
H            4.13942826124245        0.96923057410521        1.17774428611433
H            2.83651384524696        1.98148285606454        0.71238500230872
