33
 energy: -58.084358160535 gnorm: 0.000849120731 xtb: 6.6.1 (8d0f1dd)
N           -1.90696630136271        4.36810446471263       -0.14063584198835
C           -1.84303329188955        3.22103508378793       -0.15554356687801
C           -1.78585104997718        1.81382287878064       -0.16218503125068
C           -2.84885901311003        1.13213619928292       -0.76383889539307
N           -3.22504587625661       -0.07858015925482       -0.48007030252908
C           -2.57084701845633       -1.04134553925618        0.14525935570523
N           -3.34304045858927       -1.92032289196792        0.80729936841224
C           -1.15493537589610       -1.26772690377041        0.04569752112934
C           -0.66379147819770       -2.58978134938941       -0.07249381329817
N           -1.56355275064701       -3.67769433592559       -0.15623446082391
C            0.69412059569488       -2.84451463310710       -0.09579375758934
C            1.60565588459739       -1.80103562320643       -0.04010404582922
C            2.99921918904397       -1.79349771352424       -0.13171541084041
C            3.42518858907937       -0.46845165118389       -0.13173159179165
N            4.71832769394528       -0.02451795311731       -0.17046025933588
C            2.29467785956207        0.38693333331703        0.00004555559839
C            2.40931090680580        1.76459373736202       -0.09071550684986
N            2.55590947667556        2.90790950798368       -0.17347553383236
C            1.13436527885262       -0.43350164800932        0.07747295400270
C           -0.23716952946657       -0.16271843463978        0.15283440317359
C           -0.67117050911236        1.18555601196736        0.44358233865274
N            0.07839059224528        1.91988815541817        1.27509088482471
H           -3.52358171220118        1.68286787818175       -1.40948967939919
H           -2.93702765162032       -2.77842612414152        1.14558271600153
H           -4.34123091173001       -1.79764146767582        0.78177174900011
H           -1.06911474033518       -4.53862653940209       -0.35527920092107
H           -2.29795344881456       -3.53607990169290       -0.83918568395357
H            1.04613665759821       -3.86304618244031       -0.18931635379750
H            3.63177513207434       -2.65600694390822       -0.22533954317680
H            5.40781794045366       -0.66062014781158       -0.53517503845128
H            4.85362978648924        0.94644360355126       -0.40466298002908
H           -0.05276350765034        2.91938924236437        1.31942172592433
H            0.94802350929377        1.54894316721141        1.62280906564038
