27
 energy: -46.945481001842 gnorm: 0.000852702633 xtb: 6.6.1 (8d0f1dd)
N            5.05398000569884        0.99380742265849        0.06834680677578
C            4.08824887174836        0.36840930068202        0.05045943808294
C            2.92601209159963       -0.39931671561077        0.02519678226729
C            2.85086955491601       -1.80695210076467       -0.04136804037336
C            1.52659811941159       -2.21469809410329       -0.05778007424550
C            0.71159760335320       -1.07087145409334       -0.01433163647774
C            1.60200082304642        0.08023855262653        0.06674577851377
N            1.15070656537151        1.31371564187707        0.19190077759342
C           -0.14799458105302        1.52613896916953        0.16237474350593
N           -0.50115776732834        2.88224746111521        0.31257361905446
C           -1.13642758508723        0.51300639530570       -0.01361800837585
C           -2.50144091570687        0.87197700031131       -0.26682943640937
N           -2.75864171865923        2.08931752528781       -0.77466728501155
C           -3.62750204102254        0.09229692894470        0.08278057526829
C           -3.65299677788232       -1.24357864725639        0.40233942251549
N           -2.75212728344983       -2.15597228881420        0.07186394067753
C           -1.51590109261172       -1.98054619042318       -0.25563933274509
C           -0.66601121137276       -0.85304871213676       -0.05445617388548
H            3.70736435598609       -2.45666777224314       -0.07560497845791
H            1.19467661911882       -3.23639835179799       -0.07904446629969
H           -1.15626944297453        3.04936851312603        1.06754746609877
H            0.34945227792747        3.41579162585283        0.45775369443672
H           -3.70825332358096        2.38856176901965       -0.91088191709952
H           -1.99458042023167        2.73670687426754       -0.91932320510789
H           -4.57004483919974        0.62673316306453        0.11454304903324
H           -4.55756132467361       -1.65951107100906        0.83302214767615
H           -1.03061404964398       -2.87113836335644       -0.64286372301045
