30
 energy: -49.316864943076 gnorm: 0.000800445556 xtb: 6.6.1 (8d0f1dd)
N            4.80830892292861        0.44779329367997        0.13637918414573
C            3.47861167107708        0.06533955894674        0.13457573710351
C            3.01894262534845       -1.26102066421246        0.10941224379636
C            1.63131873808257       -1.22568090563806        0.06015090793802
C            0.66750574721165       -2.22393644592913        0.07942748753393
C           -0.67706857083141       -1.90975256687867        0.04409628405055
N           -1.63266988388947       -2.96649192123864        0.05823043606952
C           -1.11795169726043       -0.56516034447317       -0.00453992981708
C           -2.51286222578079       -0.26318673045998       -0.17028224000344
N           -3.28668899536171       -1.09701682777662       -0.89105502727596
N           -3.16159715696710        0.73625612752817        0.41799710446153
C           -2.64611204799677        1.87240329506669        0.79872653536523
N           -1.58159160126657        2.46975822618273        0.32419250838549
C           -0.55588668374415        1.86195754223049       -0.24715506068582
N            0.22621632939399        2.64165573819067       -1.00985335591080
C           -0.14095929274326        0.49576276821458       -0.02580379297943
C            1.21697109564230        0.17435316855203        0.01045994689834
C            2.39201498124251        0.94120641873246        0.06335019424608
H            4.98650524564652        1.37219189358735        0.49919196028184
H            5.44802091096485       -0.24886286073135        0.48664744557584
H            3.63608969922806       -2.13995146375791        0.14468137803930
H            0.96881941149511       -3.26281332833051        0.13295260084680
H           -2.31086944274185       -2.85788823431077        0.80522853537795
H           -1.16290617420361       -3.85848657267457        0.16389256731242
H           -4.28030064319631       -0.94064374554007       -0.88326123911209
H           -2.91076885004729       -1.99936453866141       -1.14559126657308
H           -3.25944613198772        2.46656394000501        1.46878924904277
H            1.06270323885315        2.26049166991263       -1.41713187008921
H           -0.01461961339484        3.61028850948062       -1.12618304021250
H            2.47488317869847        2.01183169180318        0.13115681898816
