26
 energy: -48.023966870884 gnorm: 0.000963246044 xtb: 6.6.1 (8d0f1dd)
N           -3.72390590277444       -2.31702036392242       -0.28920834644729
C           -2.90879903377026       -1.50838506658554       -0.22424532123094
C           -1.99018831002509       -0.44193153403164       -0.12621528160814
C           -2.61210697070283        0.81084377092080        0.19336816800916
N           -3.84930242247353        0.79600714328135        0.72126114066773
N           -2.14404946278906        2.01738393246138       -0.06656641568957
C           -0.92105434131971        2.35229395162113       -0.39058120672970
C            0.27163988438973        1.63839684026589       -0.27617355389114
C            1.40672029786131        2.44507977359048       -0.52905508532506
N            2.25549774884897        3.17211505566552       -0.79037129166732
C            0.45650870883026        0.24378073470446       -0.05335719423824
C           -0.61769876922717       -0.73433082045769       -0.23646896481753
C           -0.27012898570536       -2.08804644253362       -0.45487788733195
C            1.00980152082259       -2.56500519545283       -0.32499479931792
C            2.01571079705113       -1.68043887312260        0.05488068164692
C            3.37699681366126       -1.80675678959664        0.34593971951524
N            3.91819796559637       -0.62090311167955        0.68688779411474
C            2.97293037959285        0.29622014954017        0.58887223699820
C            1.72557403404860       -0.27385156441124        0.18702477308605
H           -4.31294187618801        1.67887813823803        0.85301738640504
H           -4.35884192259482       -0.06208072176712        0.84632029240069
H           -0.83574131715467        3.38694255393176       -0.71103742339733
H           -1.06818941122210       -2.77685645113147       -0.68908361152897
H            1.22280725758770       -3.61237318159696       -0.47772709619847
H            3.97839986867003       -2.69683152899982        0.32997479581188
H            3.18049527818737        1.31606437537000        0.85115293606465
