30
 energy: -54.930139731130 gnorm: 0.000909619739 xtb: 6.6.1 (8d0f1dd)
N            5.02650233377348       -0.08560119478042       -0.05408784508963
C            3.90164635464506       -0.33202821749342       -0.04274045535453
C            2.57176260082325       -0.73106560355023       -0.01562604551984
C            2.13759568303101       -2.10683580385570        0.02673507137342
N            2.96443834170036       -3.16864320504210       -0.00411270964753
N            0.81615776297475       -2.22892480605424        0.06359163388581
C            0.32121853139208       -0.96441920539395        0.04510068906616
C            1.39330192093715        0.00943044351847       -0.00408711587283
C            1.07949511544536        1.37738715815466       -0.05137407129897
C            2.09772464563165        2.34200695437848       -0.16618111973573
N            2.88959367161511        3.16722021034695       -0.27941735028418
C           -0.25813171023713        1.78917892558627       -0.00837105645764
N           -0.52336339877865        3.13601166108508       -0.03084354876646
C           -1.32435846851412        0.83800590119238        0.09280326598352
C           -2.60783791141143        1.31956348532152        0.34815392606995
N           -3.80409224469703        0.78552209248720        0.21740877829478
C           -4.13672872259604       -0.46627091046691       -0.02703915663633
N           -5.42962233795953       -0.64559810387485       -0.35972653369411
C           -3.31651527887277       -1.62700525140142        0.10319505349646
C           -1.95745493823950       -1.64268017087627        0.14213610974307
C           -1.01406669050577       -0.58781567866464        0.06303186454842
H            2.57758458443660       -4.08249606952785        0.14880694921678
H            3.95284735342027       -3.02446211092888        0.10459563161731
H           -1.40076661249215        3.45827979640272       -0.39784757013595
H            0.26808492840250        3.73578928529566       -0.20682766840655
H           -2.68228645127126        2.35407400984767        0.67371078305546
H           -5.80925828699196       -1.56181356629562       -0.51420993197413
H           -6.02619971115955        0.16115046338693       -0.42696637541197
H           -3.83809222654927       -2.57501019394402        0.12771282476120
H           -1.47456243625083       -2.61105621645281        0.20025773177532
