24
 energy: -43.006525521574 gnorm: 0.000213843188 xtb: 6.6.1 (8d0f1dd)
N            3.50696042819451       -1.30705708965010        1.06429094902435
C            2.67328945564848       -0.59619423355850        0.27931046331757
N            3.23996022643493        0.39700513281980       -0.42685173356773
C            2.51479649457330        1.36438589972609       -0.92774642079937
N            1.31700929603013        1.78858937049320       -0.60074350327758
C            0.31711273158049        1.11437986329634       -0.07692026317594
N           -0.75531659987636        1.77175482027523        0.31754015733868
C           -1.93253859462121        1.14033146202092        0.36218484634797
N           -2.96439028563059        1.85495971783467        0.84077335832421
C           -2.08103499217287       -0.18538521964831       -0.09605057553049
C           -3.17934326881973       -1.03868025397785       -0.22778692269865
C           -2.70495663443251       -2.31533564369239       -0.55432118886564
C           -1.32228621490300       -2.29459768235374       -0.60327121804883
C           -0.89745726953907       -0.97622553821102       -0.33154225014465
C            0.34703264784717       -0.38897261114314       -0.12537037898581
N            1.44175749860302       -1.05943280114011        0.15657745898868
H            3.18835296987902       -2.18235206897219        1.44065473213952
H            4.49083090056893       -1.11217675808002        1.00772160178524
H            3.02977978184459        1.99484293582829       -1.64821082877625
H           -2.79887242775241        2.81298609718693        1.09668520223786
H           -3.90188648351769        1.50259841958422        0.77765096508380
H           -4.21432510503490       -0.77453247979114       -0.09871556886670
H           -3.32496669972152       -3.17544744472912       -0.73240521314502
H           -0.67273787578151       -3.12084048191699       -0.82212150450581
