27
 energy: -46.157121535325 gnorm: 0.000761458666 xtb: 6.6.1 (8d0f1dd)
N           -4.13355313032593       -1.30954739721665       -0.61061070434212
C           -2.91265674634801       -0.96526306316411       -0.14404289488626
C           -1.99914584962779       -2.00508415194910        0.17428352288164
C           -0.65328323692135       -1.85207878688714        0.33186576711953
C            0.16688691394974       -0.71240875193787        0.13604321772788
C           -0.28953092403939        0.65042797757082        0.03379223703244
C           -1.64631992981760        1.00225029080491        0.35335041559935
N           -1.87656853971449        2.18972793191857        0.93436900988481
N           -2.74213950965220        0.31729224566298        0.08042065071887
C            0.67030502290712        1.65747635399015       -0.23764628382118
N            0.28496816168950        3.00417111434483       -0.39780662702981
N            1.97121382937109        1.46199789223332       -0.33707293191770
C            2.43510810979782        0.23833644624650       -0.16667239039345
N            3.71685962391449       -0.13480832200534       -0.19975234664437
C            3.70158610740174       -1.46143181404150       -0.01801368418721
C            2.42403578682256       -1.99916389818592        0.14606248076695
C            1.55106473167389       -0.91400454583874        0.06269845369071
H           -4.78373863510267       -0.58312766317592       -0.85142593112978
H           -4.35379966211710       -2.26453011217827       -0.82433858529169
H           -2.41412160274320       -3.00209159077027        0.24327693443028
H           -0.09506869119574       -2.75640111427084        0.53802417545542
H           -2.82634339766942        2.45393270109465        1.12940443995269
H           -1.11370304962067        2.84180618610831        1.04469413624645
H           -0.44872719589391        3.13988364507800       -1.08270651082553
H            1.10967429631583        3.54106272131815       -0.64221746464424
H            4.63117529727614       -2.00493567932458       -0.00491806721632
H            2.19308546516963       -3.03670980292492        0.30091884912244
