30
 energy: -55.736325069915 gnorm: 0.000224247420 xtb: 6.6.1 (8d0f1dd)
N           -2.90153786444406        3.58708676166210        0.00917192619231
C           -2.09393737658151        2.77344300560034        0.00452843001647
C           -1.06257007587511        1.80758006592858       -0.00074302407829
C            0.25898128056168        2.22229875946025        0.00608542550128
C            1.34077816916851        1.32448562806509        0.00147087477880
C            2.61755476987805        1.91801681196531        0.00956311163460
N            3.84179316973590        1.46190026349881        0.00871789566104
C            4.23781482276861        0.18996828785247       -0.00057776283257
N            5.57550571444203        0.05254394102667        0.00130156477989
C            3.44987960996077       -0.98880030916127       -0.01163250959691
C            2.08845271459301       -1.09451689113738       -0.01598216897192
C            1.07785277078022       -0.10598091837731       -0.01092280009177
C           -0.25960694645087       -0.52011906530324       -0.01795351611814
C           -0.85414811325763       -1.81136989134729       -0.03047777387007
C           -0.25791209572670       -3.06805980754290       -0.04048249744108
N            0.16779883738397       -4.13972105901463       -0.04962020569793
C           -2.25986858544794       -1.65359339625723       -0.03282033441965
N           -3.16676659935910       -2.64660665364508       -0.04105248920574
C           -2.56219835538998       -0.26449982661719       -0.02196339545175
C           -3.86185767579665        0.24092509486822       -0.02213340594511
N           -4.96152729702597        0.57730333303546       -0.02303156265307
C           -1.34796861964984        0.43539123178256       -0.01283528842540
H            0.46571815773620        3.28282523970406        0.01535232619059
H            2.60563905191809        3.00664153880933        0.01849888546338
H            6.01634633161391       -0.84967709899633       -0.00486468229003
H            6.13656229215991        0.88734685375266        0.00918237505786
H            4.00871580549998       -1.91598918096781       -0.01739797167533
H            1.71199105127751       -2.10930381672613       -0.02486292655487
H           -2.86767997738863       -3.60546115515250       -0.05581036316784
H           -4.14766241738401       -2.42985036156537       -0.04918624228829
