30
 energy: -54.918613500663 gnorm: 0.000677948446 xtb: 6.6.1 (8d0f1dd)
N            1.69615733417069        4.02112563944476       -0.60735309843997
C            1.37294000398011        2.94150782926187       -0.37911716257270
C            1.07080887260822        1.58680995523303       -0.15818713472233
C            2.12687901284599        0.64825678209538       -0.24360389959010
N            3.38171080752621        1.05021661768936       -0.55747110283780
C            1.82150413093122       -0.66641238942515        0.10504550055633
C            2.58959245046342       -1.83322512862619        0.30260729434948
N            3.94390649356359       -1.97998329304986        0.22757489628229
N            1.80072915849858       -2.89506759060016        0.58336294129655
C            0.54586917109997       -2.47197338716606        0.56238854911936
C            0.45195026162777       -1.08760980218779        0.28147803286151
C           -0.61779201960860       -0.19233922473201        0.17452780830030
C           -1.93334330554783       -0.63192018249175       -0.09405465216150
C           -2.08700860662848       -1.97769241993443       -0.48676700949673
N           -2.32143660962751       -3.04378006073873       -0.85155702647754
C           -3.14844040202945        0.11259317571225       -0.13960468477620
N           -4.25817564316334       -0.52510438274544       -0.57958138313291
C           -3.31590840217782        1.42400847299045        0.32354477913757
C           -2.31921195814782        2.28092653657152        0.75825807883033
N           -1.02946686740599        2.22434074931301        0.57401553571311
C           -0.25076107404434        1.22851343248562        0.18326951371228
H            4.04741261053790        0.35973009141588       -0.85945084343061
H            3.50597746604680        1.99585385223766       -0.88401016826780
H            4.26012487034496       -2.88902801271893        0.53249138160851
H            4.50944335504022       -1.20782945240083        0.54503957223119
H           -0.24783268823927       -3.15328263266090        0.80199696192868
H           -4.22452945697349       -1.49277880445748       -0.85190543313916
H           -5.14372503275625       -0.05246923587895       -0.57023905313205
H           -4.33401551728400        1.78777564422919        0.37091658136756
H           -2.63467111405143        3.19548207443529        1.25249963348213
