25
 energy: -48.294068082569 gnorm: 0.000691201551 xtb: 6.6.1 (8d0f1dd)
N           -5.17052674919266       -1.40932137321622        0.48411408671280
C           -4.20967615688679       -0.80988589173660        0.30292103113027
C           -3.02138316073693       -0.07932423711086        0.07666914176974
C           -3.14164102130267        1.23488833349953       -0.42469396338866
N           -2.25575210744080        2.17306643605325       -0.29359614699290
C           -1.00502465828793        2.12391813850091        0.06611874280528
C           -0.10164591513256        1.05037730885065       -0.02769310179131
C           -0.50103820326198       -0.36258463884435       -0.02888131541157
C           -1.81374843722837       -0.76956389310691        0.21378987051021
C            0.51422794407413       -1.36999882109696       -0.09558523197952
N            0.18374938841008       -2.69166867136594       -0.17280117523034
C            1.88456989625466       -1.03960259501861       -0.06765260947355
C            2.84994450492272       -2.06407652905926       -0.14620661433086
N            3.59782895993319       -2.93104822977381       -0.22468782465853
C            2.27370102099843        0.29700727653808        0.02116322763167
N            3.46963437395968        0.88066332477604        0.09615851803312
C            3.17897185843538        2.19027482920801        0.13070038249562
N            1.89118721262936        2.52653210322856        0.08935959442342
C            1.25475219280238        1.34140624714418        0.02614171210184
H           -4.07593634492826        1.53310561170012       -0.88733068402312
H           -0.57274297698974        3.07496618721100        0.36078728890504
H           -1.94319028127540       -1.81005882666208        0.49260978008663
H            0.94318278624577       -3.34306865745759       -0.29382171876518
H           -0.71239559868309       -2.98182267715271       -0.52034304488537
H            3.95362816708220        2.93155509749126        0.19143722682551
