27
 energy: -46.174970785538 gnorm: 0.000520046169 xtb: 6.6.1 (8d0f1dd)
N           -3.25024307656882        2.12083582689457       -0.02064696796628
C           -2.66558525140861        0.89345640507054        0.01015062821279
N           -3.56440473347539       -0.08996240801751        0.08700097562225
C           -3.26961120614503       -1.38277506482806        0.10233320548860
C           -2.07448327846291       -2.05593238154803        0.03002896288723
C           -0.75760200331586       -1.52455702680943       -0.01960834871553
C            0.31285615187525       -2.42750674192379       -0.06689611452026
C            1.65039265595644       -2.05557030748195       -0.07502286131746
C            1.94193236149905       -0.70999015375470       -0.03076048301868
C            3.12627404273119        0.09896211674919       -0.00646510499003
N            4.39681476144333       -0.34405817278076        0.00822601401420
N            2.84696327490790        1.40928382151624        0.04533832014091
C            1.50283808786864        1.51242502222565        0.05204754009578
N            0.81343110091418        2.64994375332553        0.08546506264779
C            0.86984905444315        0.23393428700299        0.00429862137894
C           -0.47852022215521       -0.10199703828622        0.00201899374645
N           -1.34341280314606        0.93423973757056        0.00057291173788
H           -4.24808876051999        2.15182281933239       -0.12861544742326
H           -2.69791072297015        2.93008740671397       -0.23905824094292
H           -4.16615656007141       -1.99594444064696        0.16832422125074
H           -2.13757136986607       -3.13757353316285        0.03347471444240
H            0.07123682284312       -3.48150910748055       -0.09123290128738
H            2.42217899256213       -2.81222532662290       -0.10686760064298
H            4.58995243988923       -1.30715101064566       -0.19850230112766
H            5.13164888987292        0.33482867458618       -0.08674469251335
H            1.27039239994327        3.53812354059072        0.18662632541808
H           -0.19411533254432        2.50499651171084        0.12173242798173
