29
 energy: -50.414235303496 gnorm: 0.000633020464 xtb: 6.6.1 (8d0f1dd)
N            3.40411063694715        3.30516026904056       -0.00142588517563
C            2.88478113654245        2.27744200333857       -0.00633807558180
C            2.31411441542738        0.99091794656775       -0.01165444997179
C            3.26269005729273       -0.03247549573224       -0.08696193109235
C            3.08763203925168       -1.39316835670224       -0.09188151502407
C            1.85574123572919       -2.08938619146546       -0.00120091599887
N            1.94315863181589       -3.45092855877283        0.01356862571343
N            0.62284870451480       -1.64169549480175        0.03501117181007
C            0.16420534304402       -0.36419266370066        0.01523658073280
C            0.88501692546050        0.89094254376072        0.03231878753404
C            0.15527522372037        2.08960033293062        0.07641987529520
C           -1.22848853542771        2.16754485153606        0.07376308281609
C           -1.93715310456122        0.98700695774026        0.02469324159406
C           -3.31649785181380        0.60300599730328       -0.00998701978074
N           -4.37711625039883        1.42599830159614       -0.03260549340915
N           -3.47127017031891       -0.73120390663302       -0.05269698802996
C           -2.23567197149314       -1.25919921256316       -0.04349271871990
N           -1.95296925816041       -2.55839514020042       -0.06740100859951
C           -1.22003966096088       -0.24853833570395        0.00271345001338
H            4.29051233150754        0.31116876668506       -0.14057449056435
H            3.97471557756804       -2.00949299411322       -0.14934270195775
H            1.11556265858967       -3.98085923116531        0.22388968914225
H            2.83420400754889       -3.89179757209124        0.15102297873183
H            0.71772331763643        3.01186237270779        0.10548250719281
H           -1.71388988633127        3.13266882945578        0.10291215624768
H           -4.25698623396220        2.41165955334586        0.11138825608774
H           -5.29565582386299        1.02283912609809        0.01749771228878
H           -2.67638708158370       -3.25006219015690       -0.14643834660101
H           -0.95233577232164       -2.74834576330421       -0.08094849049320
