30
 energy: -54.928420347683 gnorm: 0.000404419354 xtb: 6.6.1 (8d0f1dd)
N           -3.63919673334637        2.70969183232467        0.58825303148365
C           -3.02852132071541        1.74935598974074        0.42036124979419
C           -2.31731470216061        0.55600458506940        0.20088816343775
C           -3.04999448066453       -0.50053429034419       -0.43092620885653
N           -4.13924094671676       -0.17917602175259       -1.15221994274971
N           -2.84069750189952       -1.79035722335651       -0.26497216101345
C           -1.76027754850676       -2.39044110060618        0.17211237571109
C           -0.44300780896781       -1.93379706296674        0.22859866897645
C            0.58063197066706       -2.92658464341966        0.25332235803882
N            1.85577310266964       -2.70294580398984        0.15722298988937
C            2.24578451002671       -1.43067113234459        0.00782512786001
C            3.52970230213111       -0.94267415806689       -0.15163915792567
C            3.45171458410203        0.45645265447202       -0.29192160563537
N            4.50304390734783        1.29951534021276       -0.45084107383927
C            2.10324969710892        0.86646921932104       -0.16846407559957
C            1.68542604418204        2.17557977199384       -0.36239364575909
N            1.36504123726871        3.27292592674995       -0.52384955164705
C            1.31031465805965       -0.30127999304188        0.02997783358765
C           -0.04066961236694       -0.54754018407472        0.21848792864538
C           -0.96828462674999        0.51559790486672        0.56834764884613
N           -0.47906228088801        1.53123834652406        1.29170723597445
H           -4.71877738619439       -0.92507715393393       -1.49674444558805
H           -4.45721632434678        0.77283229392964       -1.21333058209530
H           -1.92178142323104       -3.44506508814839        0.37791804536475
H            0.28471673972453       -3.96625531488204        0.31555754900163
H            4.42847250883606       -1.52644637651236       -0.18604609112013
H            4.31301978871849        2.25026392692844       -0.72127219254107
H            5.38853012441554        0.91159451083247       -0.72532894505138
H           -1.03401030521128        2.35920046107940        1.44212373923210
H            0.50896092342143        1.58786011118795        1.47567499230656
