35
 energy: -62.328434671143 gnorm: 0.000228184045 xtb: 6.6.1 (8d0f1dd)
N           -5.56796110090442       -0.70610762642737        0.74623938522274
C           -4.47001762041549       -0.41349013005731        0.56068997041645
C           -3.14948215404224       -0.04193325170355        0.32122900727386
C           -2.72714567149545        1.24694777303540       -0.07520788426902
N           -3.55944274355911        2.30934831385702       -0.28779768554951
C           -1.31853398563650        1.22841904415562       -0.15760708727740
C           -0.38530534213892        2.24172536301639       -0.36765297063555
N           -0.74878722223515        3.54327139751058       -0.59153754709081
C            0.96722602423364        1.89514512716661       -0.31731806161909
C            1.44044829520156        0.60165072352882       -0.11664423123904
C            2.84760156975647        0.46352600185187        0.12070882424910
C            3.57115203518412        1.66981078839908        0.19531900052125
N            4.22443723892954        2.61771462499525        0.25186474144844
C            3.63811740197969       -0.67401717985494        0.38688632235528
N            4.90949476720315       -0.47299666133270        0.82458739664923
C            3.26328569857716       -2.01625880814947        0.19665605046966
C            2.05507924618252       -2.49677984658808       -0.23719974553388
C            0.83488835183205       -1.83659541476192       -0.38836345924754
C           -0.14990272238786       -2.63379425981513       -0.99665146247208
N           -0.90851580187858       -3.31803261527443       -1.52921958421588
C            0.47832771696477       -0.48293982770164       -0.09439617703700
C           -0.86489733061939       -0.12758396882297        0.05918987530351
C           -2.02497090640193       -0.89221889268168        0.41632910624158
N           -2.10102336487939       -2.12691209293996        0.95306105669464
H           -4.54354464788931        2.08198886264584       -0.29964085507221
H           -3.27697565796515        2.97521641284276       -0.99018853894626
H           -1.61559745229272        3.84994013870669       -0.18056627091667
H           -0.00019918882513        4.21778590531805       -0.54492387965934
H            1.68474978426709        2.69782769300665       -0.40839793133254
H            5.54216951834075       -1.25088733762388        0.87920701388916
H            5.29278059730017        0.45644923134185        0.85647229214612
H            4.05054182481947       -2.74356774081949        0.34792756355807
H            2.02573554221686       -3.55466553976022       -0.47597792855494
H           -1.34294780213518       -2.77867320671498        0.85387849306289
H           -3.02168972918702       -2.51749273834964        1.07450452386589
