29
 energy: -50.408963489817 gnorm: 0.000334022005 xtb: 6.6.1 (8d0f1dd)
N           -5.15322351188476        0.38285443196396       -0.00155555100770
C           -4.00874479927440        0.24264012785634        0.00199703890759
C           -2.62057724412850        0.07046482871682        0.00920418282646
C           -2.10713056469332       -1.22734900243837       -0.27167424142867
N           -2.97748849472884       -2.15664437161335       -0.74127076073130
N           -0.89112110315847       -1.68610429202787       -0.07428280239126
C            0.25646053311564       -1.04169551999625        0.11772749448560
C            1.37044243728079       -1.83442694544219        0.35856408211377
C            2.68118760463770       -1.35152119913729        0.28915088349794
N            3.72547880162736       -2.17724195073574        0.51870949713287
C            2.87714998412033       -0.00024617463859       -0.05191253682672
C            4.03043639585850        0.77702499153813       -0.21464129985645
C            3.63713479694361        2.09149311149554       -0.49399131653378
C            2.25654429352987        2.16177484876548       -0.49234842827844
C            1.74891185702896        0.86796119622015       -0.22092660830617
C            0.43696350517396        0.42810562232272       -0.02801947369978
N           -0.50943870269535        1.33255365343987        0.12765788810853
C           -1.81081045606818        1.19594531321839        0.30378930827714
N           -2.41925402227698        2.31904993159832        0.75677643091943
H           -3.96472924076704       -1.96748028061756       -0.75369659849001
H           -2.65279101194125       -3.10546567497816       -0.79964507939450
H            1.20287999825826       -2.88805093559659        0.52871160307493
H            3.56889813126574       -3.15791355747912        0.66905832173718
H            4.66090810522203       -1.85606854368962        0.34811471795423
H            5.04916319503048        0.44032261670584       -0.12840124764393
H            4.30889783815531        2.91121111761842       -0.67566626330761
H            1.65599548329941        3.03201947166050       -0.67716873743391
H           -1.85919648488182        3.14950372413162        0.83356383834702
H           -3.42197831754839        2.38754469623735        0.77102440054775
