26
 energy: -47.238922113513 gnorm: 0.000485140503 xtb: 6.6.1 (8d0f1dd)
N            0.02603057538141       -3.68904165247360       -0.55553481986715
C            0.45254907941549       -2.62962458967742       -0.42500383582122
C            1.05776309561164       -1.36427472280287       -0.28448904863049
C            2.43805626115256       -1.37501856936628       -0.51827961224654
N            3.34726234349918       -0.46164710795763       -0.28696856640786
C            3.05622871886962        0.77231355771286        0.14827752373668
N            4.05244714146745        1.39331234408238        0.80713060867491
N            1.98640185761267        1.50074563376542       -0.09550527594050
C            0.74686633558865        1.13557602760072       -0.34012105124831
N           -0.05183888377283        2.12732047108922       -0.74251276560283
C           -1.35995188398762        1.99840871937751       -0.66709862479851
C           -1.96199910139314        0.87795599718360       -0.12667002046405
C           -3.30810190162865        0.51572378509105        0.13617462093684
N           -4.38665082749206        1.31540286344883        0.02625066650679
C           -3.31176912773546       -0.83216760934856        0.56908717231666
C           -2.02645929310243       -1.32133746931234        0.55698105310405
C           -1.14436164538363       -0.28672819387977        0.13517882435333
C            0.22234944816797       -0.22379883134644       -0.09368291362812
H            2.85524641556708       -2.31335000782351       -0.87548758104507
H            3.95863647109035        2.37272213623500        1.00925301846068
H            4.94916436929436        0.94390228065323        0.86041439377594
H           -1.92794727479714        2.84913518441420       -1.02776157250700
H           -5.30774726545649        0.92904460921456        0.13336035720347
H           -4.29337367881040        2.22942708446914       -0.37930694690095
H           -4.19194402527678       -1.37793771104048        0.85556529753062
H           -1.73444682118002       -2.31328490401305        0.84362041589853
