31
 energy: -49.026496024765 gnorm: 0.000744332754 xtb: 6.6.1 (8d0f1dd)
N           -4.29665799851037       -1.66373340975262        0.30196996486223
C           -3.15927950943328       -0.90338631626871        0.14054009802734
C           -3.34169992056142        0.47015572766294        0.02329803063239
C           -2.37642345534196        1.44977897134721       -0.23042490745828
N           -2.85069452706781        2.74252993531275       -0.36873365352808
C           -0.99654776652213        1.30007506600302       -0.25874859443731
C           -0.17162056215979        0.17542695049914       -0.08867726720347
C           -0.63600993620254       -1.20550915025898       -0.11542874920102
C           -1.96414750390833       -1.61395384594019        0.00922727320049
N            0.21190147977804       -2.24481696846525       -0.24389877991592
C            1.51704853254275       -2.05208926589307       -0.27490293097985
C            2.09064486126510       -0.81179067660870       -0.11114821485219
C            3.42979942470725       -0.34837260842019       -0.03203766886331
N            4.55275210215373       -1.13940854389156       -0.06115406950112
C            3.39111586016431        1.02574130219708        0.18735112715304
C            2.05813351662856        1.45637160287346        0.23142079203173
N            1.66947849407055        2.76648241454961        0.45155799311635
C            1.21596219582201        0.33675520054816        0.01921351060079
H           -5.12631809295760       -1.20338971185630        0.63568053469371
H           -4.17477534727585       -2.61691983168331        0.59904742944749
H           -4.36443072703265        0.82292058718114        0.09403689731682
H           -3.81821992797982        2.84747999923806       -0.62591789488328
H           -2.22705429075661        3.40739644794864       -0.79682677019663
H           -0.45753550821035        2.21524663003402       -0.46952962276511
H           -2.06264059403622       -2.69302776093237        0.03239233862389
H            2.11028887222508       -2.95168354196569       -0.40719212958760
H            5.41869383989639       -0.67126280366569       -0.27674541843914
H            4.44372138342119       -2.04197109039568       -0.49497891350075
H            4.24911327761096        1.66242298948695        0.31707853222406
H            2.41285481550325        3.34657411986669        0.81659942301166
H            0.80888515846752        2.86452781304925        0.97282482957108
