26
 energy: -42.430747856068 gnorm: 0.000789719959 xtb: 6.6.1 (8d0f1dd)
N            3.57367727689891       -2.08022353486719        0.03965894728113
C            2.80865404392573       -0.95348302356133        0.00903123877895
C            1.42269026733050       -1.11696071475270        0.00988119746344
C            0.38065222852818       -0.18160232147491        0.01242672325675
C            0.56416312250593        1.26783757608845        0.00526991932538
C            1.81579404000663        1.90795788007121        0.01341434185909
C            3.09825163790491        1.38708619851251        0.02153738027233
N            3.55689788056827        0.15731460225692        0.01447389645474
N           -0.46285971059306        2.12496999964976       -0.00659779543850
C           -1.71226821006471        1.68715048965851       -0.01031675280300
C           -2.02973952746712        0.35010007409165        0.00307422931020
C           -3.25496782228382       -0.37490494856529        0.01442914065768
N           -4.50375936826699        0.16925655782720       -0.05124995842789
C           -2.93587114912531       -1.73646283609470        0.03383895113746
C           -1.55362247890076       -1.88830436179474        0.03597588039926
C           -0.95272437581677       -0.61808490842686        0.01756949970846
H            3.17055904687300       -2.98261257844409       -0.13496465826448
H            4.56477610846318       -1.95784071977196       -0.07184550511661
H            1.09849317848837       -2.15101613381501        0.00878927197429
H            1.73854618746913        2.98744683282073        0.01187066845584
H            3.90451398871339        2.11749426922829        0.02822927796573
H           -2.46762196826374        2.46652849065119       -0.02442421825908
H           -4.60046032701286        1.14572067767308        0.16859062513812
H           -5.28325744395574       -0.42104285339506        0.18537574563806
H           -3.65277141315698       -2.53784902335494        0.04718374293395
H           -1.04698782846826       -2.83636618631070        0.05453423929874
