30
 energy: -54.130166536382 gnorm: 0.000964866391 xtb: 6.6.1 (8d0f1dd)
N            0.39254163672926        4.26418122118659       -0.21803452752097
C            0.35947756641339        3.11715379613082       -0.13920436233836
C            0.42991678687375        1.71520337937360       -0.06679821814230
C            1.71327666823565        1.11193247732435       -0.16520088722201
N            2.81271788894249        1.88346912021755       -0.39320870575292
C            1.77807224916101       -0.26451323683262       -0.00479997568782
C            2.83076313274072       -1.21525999782594       -0.01532179183207
N            4.16432437502160       -0.98193279399081       -0.21342649576049
N            2.38537048417953       -2.45128940503491        0.24639244089998
C            1.04995895477179       -2.36915348377954        0.38496690796937
N            0.31810823956853       -3.48696663602479        0.64681953156840
C            0.58035275967139       -1.04223631670137        0.20847428080899
C           -0.69647559144416       -0.47612220464159        0.16239241371144
C           -1.83480800176061       -1.24641933533883       -0.10324540095210
C           -3.15534391151637       -0.80641237953934       -0.28028318859573
N           -4.03940850963241       -1.66367427754499       -0.84824049471486
N           -3.72314953115010        0.31957304853344        0.16149242421199
C           -3.05324694977763        1.32486438099924        0.67920501989466
N           -1.81066283761618        1.69281446496402        0.55928089524468
C           -0.74453076584712        0.98644375348733        0.18737867379265
H            3.70019565919103        1.53157157417891       -0.07442581108393
H            2.68180644287918        2.88265466402493       -0.33606881847944
H            4.69934757682742       -1.83422536936138       -0.29908022688300
H            4.39646887366213       -0.27917500089882       -0.89863437855872
H           -0.55069803782891       -3.35371452359095        1.14033854257022
H            0.87025685034603       -4.27979024407416        0.93647266728478
H           -1.64867620807702       -2.27838967877172       -0.37424616130896
H           -3.73587508857650       -2.51887984211708       -1.27549990941400
H           -4.97296066139839       -1.32965262674711       -1.00783621656588
H           -3.67537673428978        2.04153193349525        1.21155329565658
