33
 energy: -64.477104253564 gnorm: 0.000861216639 xtb: 6.6.1 (8d0f1dd)
N           -5.30851042149328       -2.66904788675020        0.98281705581899
C           -4.46841836658278       -1.94853781653751        0.68419323974137
C           -3.41526332764300       -1.07513984444477        0.31174950097425
C           -3.77209273305099        0.23565396387482        0.03019915987952
C           -2.90474447070111        1.28251142170750       -0.28839751194403
C           -3.52491324634780        2.52357131926149       -0.58901837509158
N           -4.04288065070231        3.51212268361070       -0.84795872747174
C           -1.50916233871306        1.28661098638105       -0.27106120361343
C           -0.57314140263353        0.26602880001114       -0.10073139278984
C           -0.89775984917492       -1.17814185658694       -0.08011050620371
C           -2.15281259378008       -1.68679591503767        0.19721751444178
C            0.16244042286231       -2.12586599211226       -0.25534515316252
N           -0.10295635728228       -3.45178926144370       -0.42992334687625
C            1.50564655618364       -1.71999501724128       -0.18561140500309
C            2.52179626482523       -2.68885700284070       -0.32502494927077
N            3.30115798052513       -3.51983081853384       -0.46367625787494
C            1.82544977029087       -0.37318283441745        0.00299834386408
C            3.06287723533118        0.27242141337030        0.12122156808653
C            4.33858169227173       -0.29196814872927        0.15571870062306
N            5.41763451742531       -0.68550348383222        0.19763108157758
C            2.81343984246821        1.67089432509750        0.21140790047235
N            3.74843102309438        2.62171068677464        0.34342049626010
C            1.41354994956287        1.88479878120851        0.13785678343552
C            0.86060580974011        3.16048873260514        0.22493814499993
N            0.47845936768442        4.24357296888382        0.30920563902292
C            0.77560156040228        0.62424663123951        0.01243413062025
H           -4.82829097167245        0.47524418317476        0.07304820363067
H           -1.07706034944789        2.27083437145564       -0.41484767157682
H           -2.19116045844803       -2.75395028786105        0.38759311628024
H            0.68530085242829       -4.06001044228970       -0.58499407268067
H           -0.98156222909923       -3.75337304654052       -0.81128974710758
H            3.48156011841815        3.58870628188398        0.41148916781653
H            4.71911033356507        2.36738760575429        0.40605733652028
