29
 energy: -49.610377734583 gnorm: 0.000647688947 xtb: 6.6.1 (8d0f1dd)
N           -3.71993164246385       -1.83782500196630       -0.14850336248502
C           -2.97433159689541       -0.69280109322413       -0.05042052778493
C           -3.70301817363522        0.51936727181988       -0.00021987592794
C           -3.18364940846787        1.79568246529607        0.04500027774451
C           -1.86331308502644        2.20457993871758        0.04122954739526
C           -0.68985837692820        1.42906369859604        0.00134949345030
N            0.43301807813312        2.15691313565491       -0.02535035982691
C            1.64759468463079        1.61177968248796       -0.02885191456248
N            2.69581407346833        2.49139232030401       -0.06050136878711
C            1.81186727069422        0.23103559991039        0.03763831211233
C            2.87018917746303       -0.70385204493585        0.05915770953026
N            4.21243129619608       -0.43926840007062        0.06939767846941
N            2.42432237651473       -1.97604804268847        0.01609403366472
C            1.08573863396856       -1.91618857243569       -0.00946932811718
N            0.27020871347737       -2.98373441690258       -0.01533395206115
C            0.61620518919497       -0.56999849310205        0.01628498390425
C           -0.66052344669796       -0.03173767176681       -0.01303729112505
N           -1.68057062756750       -0.91707977399711       -0.04229791875748
H           -4.69936692141656       -1.80564111383263        0.07190797234637
H           -3.24182058118314       -2.71062546642997       -0.00455551112659
H           -4.78053965789417        0.41844786364164        0.00689961011014
H           -3.91641607869048        2.59391778316491        0.08704772841128
H           -1.67592466426200        3.26917833814173        0.07663060384789
H            3.55697965346994        2.16633932787752       -0.46731532894515
H            2.43112889879237        3.43948399277176       -0.27893951569196
H            4.49762024604911        0.38815081840027        0.57005252863179
H            4.77814293811219       -1.25567447535427        0.24805607482140
H           -0.70106974650945       -2.74563724297814       -0.17467786627215
H            0.64172828307333       -3.88888492160007       -0.24323647816885
