23
 energy: -44.072451880336 gnorm: 0.000511652399 xtb: 6.6.1 (8d0f1dd)
N           -1.78221239208972       -3.54849454214337       -0.14401948312280
C           -1.96800273648410       -2.41767161270089       -0.03909928592098
C           -2.17228699818456       -1.04542912427431        0.07921496232764
C           -3.40157163269289       -0.38154725154314        0.28534767669529
N           -3.28599169302848        0.93933426813040        0.36739942226177
C           -1.98280836798214        1.21301880515137        0.24805466707779
N           -1.42938445250255        2.41326875328778        0.25222243018548
C           -0.13524970310925        2.48508500633939        0.06234363369110
C            0.73755200449413        1.38824442088147       -0.12610328447544
C            2.09854369417993        1.65742386919653       -0.39757660601771
N            3.14043555421372        0.88930651084475       -0.27709849325659
C            3.10683689870640       -0.42255179723722       -0.01993328248331
N            4.18906392843394       -0.94160174200423        0.56413503610731
N            2.18689223657383       -1.29690300318056       -0.44285631152505
C            0.91859503946006       -1.08128502839767       -0.56390011798094
C            0.16806683614196        0.05972712620533       -0.15342970088338
C           -1.20518551754071       -0.02096234248367        0.05104861810720
H           -4.36643156049435       -0.84947633484684        0.36741725422556
H            0.28125664901369        3.48423578963569        0.07581479597042
H            2.34549213935296        2.68049763012702       -0.66846700371055
H            4.25629147841610       -1.93779114103953        0.68466261470970
H            4.95895476831850       -0.34085007305654        0.80343717845710
H            0.35773228810419       -1.91741644029198       -0.97139139383998
