29
 energy: -50.402941636166 gnorm: 0.000822889698 xtb: 6.6.1 (8d0f1dd)
N            1.17288569817600        4.03529847457686       -0.34066642992747
C            0.83319535629544        2.94194035771554       -0.21964590809667
C            0.33172429360370        1.63476327023875       -0.10430469340390
C           -1.09203404939995        1.50291938386375       -0.08093271268413
N           -1.87749261419123        2.62009107204569       -0.16146083687512
C           -1.60169329992336        0.22898807847452        0.07520728058513
C           -2.92671569765028       -0.29463866864441        0.16669662747063
N           -4.07401441371913        0.45238489466983        0.22631567465730
C           -2.86029050085881       -1.68700994435458        0.13915668878032
C           -1.51932589563222       -2.08057904700327        0.06631605384317
N           -0.99083380718427       -3.31064496633877        0.04832739331106
C           -0.70806912469970       -0.89956368384916        0.05054994709305
C            0.66814705287882       -0.79796426872306       -0.03477581300571
N            1.35444483330750       -1.95797644670559       -0.19606347698151
C            2.64600213900420       -2.13799758780474       -0.21720799119856
N            3.67733350626179       -1.39580132069566        0.13575985796465
C            3.62325758023482       -0.08557471592282        0.33983348369099
C            2.60044852055472        0.81672448344240        0.15091495423807
C            1.21950660422611        0.54980146914100       -0.03281029842863
H           -2.80327257760155        2.50088771368038       -0.53814365267306
H           -1.41048386365677        3.47734308801182       -0.41863018450739
H           -4.91021371052025       -0.06669097611717        0.44861575666519
H           -4.00383239331156        1.33836816856852        0.70310222670959
H           -3.70554661161985       -2.34911688761245        0.18431334039612
H            0.01508628350300       -3.32381759831213       -0.11046732681172
H           -1.56662302643164       -4.12078612232663       -0.09977694895372
H            2.93247786703103       -3.14824312735385       -0.51356352785581
H            4.57909613256156        0.32401752447370        0.65674967063548
H            2.85918258306008        1.86273040086272        0.26500028246291
