29
 energy: -57.588301573532 gnorm: 0.000769307406 xtb: 6.6.1 (8d0f1dd)
N           -4.85380976151214       -3.40051478615681       -0.00170998650739
C           -4.07253815731046       -2.56401128683473       -0.00071207807239
C           -3.09725363972372       -1.52663528573016       -0.00061271572420
C           -3.59912910089600       -0.22752935376437       -0.00058916849765
C           -2.84803308238304        0.94798149027891       -0.00025793646248
C           -3.61266265137723        2.15048016039709       -0.00062761884218
N           -4.24572566655983        3.10361929798254       -0.00004637877250
C           -1.46789199658657        1.11787288357128        0.00010075732093
C           -0.40803632017245        0.19684704741621        0.00026880008080
C           -0.55759023769361       -1.25858529125537        0.00009497091295
C           -1.77352338254995       -1.95753839726193       -0.00030620476880
C            0.59291693846311       -2.06559635296478        0.00027618483406
C            1.88159692487127       -1.55116123310449        0.00057494876077
C            2.98162857734169       -2.44380231089950       -0.00044578287189
N            3.84104797931915       -3.20004871943507        0.00225906064915
C            2.05833081068549       -0.16756330549206        0.00075576383359
C            3.22121322326058        0.63335303264068        0.00094286961139
C            4.54791030662474        0.18506422835706        0.00110903261425
N            5.64314694855933       -0.15731627973617        0.00073914443784
C            2.81460629156788        1.97341096073264        0.00101613627322
C            1.41565957341494        2.03300221667385        0.00080582381853
C            0.72046900151125        3.24748946014159        0.00083225186984
N            0.18703673748625        4.26589135441472        0.00122781199373
C            0.90335060733037        0.70300719603669        0.00060553825151
H           -4.67724427313805       -0.11836959441079       -0.00087676159366
H           -1.15825515565119        2.15669297141900        0.00025152948701
H           -1.66542739726734       -3.03759278093422       -0.00036736959353
H            0.47282568185068       -3.13910329736507        0.00002654984674
H            3.47039346883486        2.82441686848331        0.00116586091032
