30
 energy: -50.924185079121 gnorm: 0.000490015570 xtb: 6.6.1 (8d0f1dd)
N            5.03574971770265        1.06675556598206        0.16819382946546
C            4.01390707861042        0.53847533118434        0.15492328649707
C            2.76641300931466       -0.08333626994225        0.12348167075573
C            2.51290282771233       -1.45905102697174        0.25783075150475
C            1.14333699298823       -1.68937116605177        0.14922960287003
C            0.54321097312252       -2.93238494251240        0.32966178657160
N            0.03747933186513       -3.95929604498853        0.46576037001319
C            0.48813028070215       -0.42169636317079       -0.04076109219004
C            1.52797841316635        0.57253709994865       -0.02931050219497
C            1.21765097957965        1.91600362989423       -0.22095033189205
C           -0.10029493649998        2.31615821469803       -0.23998467866484
N           -0.40377133346311        3.66763915361185       -0.33237930041410
C           -1.16228684451282        1.36422685324562       -0.04635933691950
C           -2.39317332434868        1.88051295111012        0.37144126556068
C           -3.56554842809444        1.25043173151597        0.74057053464886
C           -3.92071919475624       -0.07592454862465        0.53425143010335
C           -3.18819995406859       -1.04642570164753       -0.11270246471203
C           -1.84811493392035       -1.02345026845416       -0.51344816734281
N           -1.44727178820872       -2.02135341420404       -1.32287115434910
C           -0.84859503477186       -0.04402191418570       -0.16095026412640
H            3.25730739159565       -2.21582995177596        0.42863788487783
H            2.01189781472394        2.64224592199766       -0.32287320286870
H           -1.20788807650464        3.91289950454719       -0.88811947764149
H            0.39711457482087        4.25122229914536       -0.52023587234589
H           -2.38746662344292        2.94910535948683        0.54483064016710
H           -4.31514538512438        1.87872302429980        1.20310449378131
H           -4.91552545307567       -0.36131542875369        0.85065267820056
H           -3.70243232500743       -1.97658854447670       -0.32290826044385
H           -0.47807481457147       -2.10697866096651       -1.57958005189590
H           -2.02987667123310       -2.83080664264118       -1.45562441661568
