31
 energy: -55.456665454724 gnorm: 0.000626342817 xtb: 6.6.1 (8d0f1dd)
N           -4.27504816509074       -2.06341587677910        0.45717914255673
C           -3.51695025548158       -1.21209433938135        0.31258674385996
C           -2.62020339167595       -0.13397956334308        0.13581529658931
C           -3.19592923710893        1.03845515653257       -0.40493632533637
N           -4.43983413730556        0.95525632652862       -0.92048121494083
C           -2.61470283438473        2.31805835870960       -0.31817784967673
C           -1.34743709631312        2.66314457167378        0.05933992765089
C           -0.18413873919737        1.88065386789449        0.22250086735699
C            1.03085194871896        2.60466437487206        0.31935128599471
C            2.25920461807496        2.00167278679340        0.28209008031958
C            2.32033665451330        0.62329053151848        0.09044122370467
C            3.41274559304674       -0.24716055581353       -0.11204471034557
C            4.75729242992789        0.12574201825586       -0.13342992923774
N            5.86334379131434        0.44023850811853       -0.14253898314706
C            2.90423147151068       -1.53678924403159       -0.32028211588883
C            1.51206278974556       -1.50817381559317       -0.21000634205705
C            0.68701371715288       -2.60097226229003       -0.46897751064328
N           -0.00237244733641       -3.49897092787070       -0.68311750901779
C            1.11103980218396       -0.15997586188031        0.06342394145454
C           -0.14015282412187        0.45009360811928        0.22920703895114
C           -1.29286560631357       -0.36596082046183        0.53949472780181
N           -1.06421256190539       -1.45310226793790        1.29036504941714
H           -4.92832064446156        0.07614494316438       -0.94739313464182
H           -4.91109764504600        1.78104368639675       -1.24348171061913
H           -3.28198237881817        3.13350904291726       -0.56928243896605
H           -1.16783279999224        3.73020060339586        0.11820572567256
H            0.97042070994788        3.68021926445680        0.39329656299275
H            3.16848255513955        2.57962962487726        0.35448745998539
H            3.48915759332376       -2.41128960991021       -0.54133291262959
H           -0.12014008120634       -1.70414443532314        1.53452872704422
H           -1.77967461904068       -2.15272541990912        1.41336063489525
