29
 energy: -51.139663275049 gnorm: 0.000562117571 xtb: 6.6.1 (8d0f1dd)
N           -5.56558271537630       -1.01610898544079        0.00030697674434
C           -4.42370405751435       -0.88123373243862        0.00067709297169
C           -3.01951225962102       -0.71719632442147        0.00031971423823
C           -2.32835874965412       -1.96808700545995        0.00055742771882
C           -0.98950356043275       -2.23791320303088        0.00058410609237
C            0.00636725270332       -1.25981914678727        0.00038989492759
C           -0.13010662321010        0.21611563829817        0.00010127765331
C           -1.20249131585810        1.04795298577245        0.00001015147146
C           -0.96434317965832        2.44177135163469        0.00090250618180
N           -0.78934946240640        3.57651913009940       -0.00176486250756
C           -2.58408677574708        0.60978385286116        0.00011355567543
N           -3.51276844134356        1.60232531653994        0.00016218781488
H           -3.22799129612307        2.56584795579041       -0.00018058342679
H           -4.49254203296303        1.37773992385564        0.00012830664387
C            1.31464619452734        0.33325169918257        0.00006372922801
C            1.39610544275936       -1.15009120162888        0.00034688126540
C            2.54487468075232       -1.94884642548657        0.00061725502456
C            3.80837267922673       -1.44467793709010        0.00049946510059
C            4.23879441685846       -0.05148727380516       -0.00000909181297
N            5.58429553332846        0.09812292635938       -0.00031071860936
H            6.21271774432838       -0.68396793093124       -0.00034488611523
H            5.94752692605489        1.03549835171148       -0.00074032084818
N            3.60458017175013        1.09179984157394       -0.00019174863174
C            2.26619949573719        1.28859782476003       -0.00007484511284
H            1.99211157131907        2.33828950563613       -0.00020807975390
H            4.62680549101600       -2.15336916693831        0.00074564382439
H            2.41780500201493       -3.02465702543920        0.00096229504666
H           -0.67765157852957       -3.27401310797766        0.00078440235611
H           -2.99683863313862       -2.82086169749881        0.00079828943890
