30
 energy: -55.665827587946 gnorm: 0.000280590757 xtb: 6.6.1 (8d0f1dd)
N           -5.39534948796193       -2.75824046031771       -0.00172988886994
C           -4.57902926142299       -1.94950645693254       -0.00212601021440
C           -3.57106645214687       -0.96433844850004       -0.00242338078060
C           -2.22553082559025       -1.44767653753822       -0.00180413101003
C           -1.15236712400825       -0.63742867417049       -0.00202121126817
C            0.29305250230015       -0.80147157769752       -0.00155066653355
N            1.06638178634146       -1.81135876650307       -0.00084564318142
C            2.43029503940545       -1.71423961309264       -0.00052031598539
N            3.00969287715551       -2.93323460267465        0.00013467366828
H            2.40729637056435       -3.73742278950320        0.00033815428519
H            4.00913141997845       -3.04156501090853        0.00050451087153
C            3.23206025424913       -0.56049270714709       -0.00075256603861
C            4.62419026413175       -0.80338777299484       -0.00002725833139
N            5.75328684909427       -1.01597190068899        0.00036085604595
C            2.89095380870318        0.81625582866486       -0.00146944729461
C            1.64617982932240        1.41575102633812       -0.00220526897036
C            1.60047517777910        2.82267982763688       -0.00285168106840
N            1.51217980705474        3.96979448838410       -0.00331032843711
C            0.43511363573200        0.69026202277376       -0.00231084774792
C           -0.94937161211689        0.82766828604882       -0.00281401988863
C           -1.93855155942750        1.85329524734876       -0.00378607537806
N           -1.54782668284404        3.13969143473862       -0.00458794022545
H           -2.23746258812175        3.87156131288134       -0.00521774442314
H           -0.57510272194628        3.40318314929479       -0.00435923424605
C           -3.30491527066630        1.57053795226803       -0.00398398129629
C           -3.99430720913289        0.35547900908334       -0.00336238297330
H           -5.07379306940130        0.46909132501838       -0.00369891125773
H           -3.94150195183543        2.44773360538341       -0.00475056122158
H            3.74433566390816        1.48481200973551       -0.00143928379345
H           -2.07920877459741       -2.51946518912922       -0.00113620183536
