29
 energy: -51.141888540190 gnorm: 0.000447483474 xtb: 6.6.1 (8d0f1dd)
N           -5.63329249103069       -0.03747367754809       -0.00166019072494
C           -4.48520251030824        0.02457307621875       -0.00160222646915
C           -3.07453920919610        0.11329705182844       -0.00074406955388
C           -2.44738383414934       -1.16423148707153       -0.00089266000898
C           -1.11154374437138       -1.49360157319773       -0.00132884777653
C           -0.75426009081035       -2.86011965584987       -0.00176852465866
N           -0.44129234300891       -3.96450402165956       -0.00181250798555
C           -0.06420062451765       -0.54925995813279       -0.00165947232564
C           -0.14642150428348        0.93117550495222       -0.00143161968691
C           -1.17493264258326        1.79354660523195       -0.00097600608332
C           -2.56050455895967        1.41672671765435       -0.00056063922959
N           -3.43851939028562        2.45204433041995        0.00144720366048
H           -4.42941597378762        2.28047112766320       -0.00188353032670
H           -3.10671323063462        3.39890279973180       -0.00393477631608
H           -0.97099214839380        2.85758994199036       -0.00089132550670
C            1.31005046806986        0.97950452269457       -0.00209645496399
C            1.32251310543979       -0.50278784941113       -0.00230110074544
C            2.42995255577465       -1.36502710089170       -0.00295238919577
C            3.71447889323904       -0.92603131157334       -0.00353451146956
C            4.21489099653264        0.44495953336575       -0.00363051647463
N            5.56701424021287        0.52461876448930       -0.00432266887555
H            5.98023958913820        1.44084889819857       -0.00460709974833
H            6.15215069672825       -0.29020641399608       -0.00517030802910
N            3.63851954571568        1.61720165475844       -0.00311683231900
C            2.30992416336113        1.88097878274568       -0.00236674809037
H            2.09591113337709        2.94495616556369       -0.00199469156048
H            4.49623515128118       -1.67473989194669       -0.00402121807627
H            2.23865834460649       -2.43098554364482       -0.00301309921132
H           -3.14534532595621       -1.99427211718367       -0.00088712614805
