31
 energy: -59.395565999492 gnorm: 0.000951327892 xtb: 6.6.1 (8d0f1dd)
N            5.46537097551731        0.92024214118099       -0.02145101242558
C            4.33314255396178        0.72988330868560        0.00628961997628
C            2.93588104134626        0.49550535589109        0.03839293589981
C            2.19339848676602        1.68105835241878        0.05560147671028
C            0.81205095985728        1.87988456526104        0.08106426883016
C            0.35234447869015        3.21250535526626        0.10566602700875
N           -0.06142986266502        4.28495568704487        0.10712919186880
C           -0.13385030043240        0.86400804484560        0.06447702484480
C            0.07533128369565       -0.63585951189586        0.05447375098211
C            1.23392323823810       -1.38311652468575        0.07398295161337
C            1.09083788560120       -2.78412243106747        0.10138353478521
N            0.95060967297454       -3.92634398239004        0.10736794634335
C            2.56462901126998       -0.87086407911138        0.05319926798726
N            3.56850827059068       -1.78945092470515        0.04655131046856
H            3.35958055992741       -2.77200100887888        0.05604014941481
H            4.52811151991189       -1.49179227250669        0.02784021919769
C           -1.32069881294804       -0.81702609583954        0.08847498717378
C           -1.51404299176074        0.66663697625178        0.10501786902655
C           -2.72759007998642        1.37233797426204       -0.05440874735300
N           -2.74596782784099        2.65769896759376       -0.43639231849296
H           -1.91286153775968        3.22491727089661       -0.44654751325379
H           -3.64527000562504        3.10586389248772       -0.49750078988040
N           -3.91988263279808        0.82776373418387        0.17814629104532
C           -4.19324270180044       -0.43387593237773        0.43530466701275
N           -3.60334280017879       -1.57408105335788        0.19877128353641
C           -2.30615227750977       -1.79785176071326       -0.06936073938723
N           -2.03106398943003       -3.05294884483005       -0.46424256534627
H           -2.80248840753103       -3.69912609327871       -0.48403386322946
H           -1.09128228181743       -3.41446223002865       -0.47915310125228
H           -5.19208446668871       -0.55992761356205        0.85309933074755
H            2.79277105082474        2.58484365605910        0.04929815174765
