27
 energy: -47.693560532033 gnorm: 0.000567519649 xtb: 6.6.1 (8d0f1dd)
N            5.31625484269369        1.81841995161161        0.00371086269776
C            4.38270073856207        1.14946445155886        0.00288926320426
C            3.22419779001209        0.34189758877074        0.00364877919260
C            1.97018844760400        1.08571912234584        0.00605286658749
C            0.78397993799111        0.47969154733197        0.00599958088695
C            0.36002216436412       -0.94113008500664        0.00420030059063
C            1.14621066238740       -2.10653904063747        0.00134807747810
C            2.50902070650195       -2.11297747897776       -0.00011656555676
C            3.42034450072223       -1.01112981466462        0.00093969597264
H            4.46281496582859       -1.31441399977974       -0.00080731839354
H            2.99097365190657       -3.08165906294393       -0.00243901925398
H            0.62059470743019       -3.05325540065565        0.00017914707840
C           -0.98423965543693       -0.58871940789345        0.00585577410977
C           -0.64493094691439        0.84563082378546        0.00745816696164
N           -1.27243829077365        1.95104086760989        0.00724158101622
C           -2.65102580152805        2.00355303342765        0.00670487593705
N           -3.07689467061754        3.28979479037099        0.02301559826378
H           -2.38169337453689        4.01318759030351       -0.02143335662645
H           -4.05045851082829        3.52389932013217       -0.03600585570167
C           -3.57867737196219        0.97620119272458        0.00421586369216
C           -3.43059397551428       -0.42663433216098        0.00371365864598
C           -2.27538410397273       -1.17848860895505        0.00423170940133
C           -2.36308827322989       -2.58477391491055        0.00272141598498
N           -2.40968353710611       -3.73251064811356       -0.00154208414840
H           -4.36050058763054       -0.98213476913113        0.00187570645874
H           -4.60840735714779        1.31450113352108        0.00355579553828
H            2.04135846839520        2.16471977253612        0.00771435378203
