28
 energy: -45.818260440215 gnorm: 0.000824418538 xtb: 6.6.1 (8d0f1dd)
N           -4.11859637626734       -1.45077109392350       -0.15429785787314
C           -3.09270574342111       -0.52963735817180       -0.04270513948454
N           -1.88349200513481       -1.09944531351346       -0.01597166339444
C           -0.78791524004802       -0.39852538994960        0.00054805944543
C           -0.45572012738648        1.08851912966967        0.01764070721245
C           -1.31224140948800        2.14999448870870        0.03826153669986
C           -2.70554088587344        1.99278768696676        0.01624351195122
C           -3.45701737603722        0.83127197496456       -0.02186244969131
H           -4.53146066938768        0.98451310468106       -0.03801312112360
H           -3.28028213952809        2.91135849557831        0.03351264195288
H           -0.92830451078644        3.16383777717009        0.07866881472454
C            0.91511790500151        0.75191584621677        0.04192265694677
C            0.58486266316407       -0.69316103858791        0.03010002835395
C            1.39896589154759       -1.81410573366502        0.00829253895328
N            0.81728902371777       -3.03476828033430        0.00266868013921
H            1.36450768591819       -3.86571294022436       -0.13383329250615
H           -0.18401235690383       -3.07562255530457       -0.08226324111994
C            2.80932626729993       -1.69916362515413        0.02392263233570
C            3.58065489400928       -0.55120382029929        0.05748206513646
N            3.35327218230407        0.75155512101817        0.04026424351988
C            2.16133091670503        1.36669080513306        0.01844541626870
N            2.25122306853988        2.72156382618418        0.00296806340293
H            3.16380078150972        3.12040604062694       -0.13294714280232
H            1.43449034431281        3.27567835108763       -0.17723509553743
H            4.65369493411169       -0.74234025418073        0.08961888598132
H            3.35644234628338       -2.63392864974750        0.02016174445668
H           -3.85399814911165       -2.40084406569533        0.04796220204162
H           -5.03218925365083       -1.17492336495438        0.16369108810997
