32
 energy: -59.913596548990 gnorm: 0.000491875593 xtb: 6.6.1 (8d0f1dd)
N           -6.48349469799316       -0.89558718752384        0.01864921314952
C           -5.34343401902476       -0.77911542956083        0.01255669416194
C           -3.92839578424480       -0.64162977656429        0.00546870796063
C           -3.23565047457104       -1.85739468963446        0.01133571458613
C           -1.85882648699103       -2.07554148177960        0.00690252759945
C           -0.90586247616282       -1.09474637054364       -0.00047764898717
C           -1.02746224440449        0.40773350936838       -0.00512245851113
C           -2.17295221526765        1.18030577107377       -0.01153081231478
C           -2.07447263838393        2.59031071630164       -0.02599902310357
N           -1.99694942919632        3.73646385911887       -0.03868473875393
C           -3.48755199849213        0.68338298920288       -0.00642071592354
H           -4.26913079505630        1.43458056870156       -0.01154528369530
C            0.38453758879417        0.51247183187759       -0.00493063884235
C            0.50471560855055       -0.96185951010956       -0.00288194915152
C            1.58892184644389       -1.82985271110017       -0.00680316308462
N            1.39148765420556       -3.16298988822687       -0.01179359020916
H            2.17907576588466       -3.78998427467986       -0.00771346988970
H            0.46196245771051       -3.54001331108407        0.00030048996228
C            2.93546074330734       -1.35181822836921       -0.00784287681754
C            3.93901149630569       -2.34243690649717       -0.01453931051356
N            4.73187412787187       -3.17489806276128       -0.02052413605220
C            3.39292774679069       -0.03769468146316        0.00093670631571
C            2.75387165512491        1.19675594184440        0.00751036237367
C            3.62980125624155        2.30410275446333        0.02111307066339
N            4.33031284335852        3.21530993380604        0.03329238729403
C            1.35476515895010        1.51505102440073        0.00143384979713
N            1.02196280385591        2.81396633563859        0.00450657158035
H            1.74761548545571        3.51329530766460        0.00909252474850
H            0.06223668853588        3.11959391377905       -0.00369770119878
H            4.47705767635201        0.03993526197239        0.00376069782436
H           -1.54628565680257       -3.11316073185462        0.01102644578436
H           -3.86137582504912       -2.74125034256070        0.01972905074706
