25
 energy: -38.653233675272 gnorm: 0.000948644851 xtb: 6.6.1 (8d0f1dd)
N            1.45551725966134        2.59621452917140       -0.00072228452052
C            1.71867792956779        1.27397974456806       -0.00072959787095
C            0.61802574024612        0.40874015209425       -0.00080331221007
C            0.52163911229382       -1.06559298313007       -0.00080345416904
C            1.49443442002153       -2.02029557598652       -0.00071185349148
C            2.86786934644328       -1.73683012064197       -0.00059625479050
C            3.50654643393772       -0.50385476202652       -0.00056877942733
C            3.04315690315459        0.80791711941195       -0.00063136563722
H            3.80536112754845        1.57835820961164       -0.00059234791875
H            4.58964864493198       -0.57491356963806       -0.00048491793573
H            3.52326410258034       -2.59831028282173       -0.00052844338280
H            1.19988045516172       -3.06278181313676       -0.00073521546235
C           -0.90921470786190       -0.97895064514803       -0.00096376092593
C           -0.77151809377261        0.53670137444935       -0.00096000340652
N           -1.62304410935961        1.53414971880425       -0.00107437723815
C           -2.92512303433422        1.33323972368805       -0.00123643445215
C           -3.68817038205131        0.14093271416530       -0.00131813887225
C           -3.32532957995675       -1.18537525237801       -0.00125759015774
C           -2.01924904980744       -1.74548396381163       -0.00109136697184
H           -1.93936072561793       -2.82638254463003       -0.00107099962301
H           -4.13788953526660       -1.90193272564049       -0.00135112542666
H           -4.75793898609046        0.32264532205796       -0.00145486954590
H           -3.49598616376844        2.25643320223410       -0.00132039029179
H            2.19160916825127        3.27883657936846       -0.00084853220697
H            0.49116870478731        2.88507334486507       -0.00090576636435
