25
 energy: -47.457183580727 gnorm: 0.000478906704 xtb: 6.6.1 (8d0f1dd)
N            4.86477056416323        1.84884880800807        0.00114395437313
C            3.88673851566698        1.24064028756596        0.00236048578929
C            2.70888158241050        0.47537515123311        0.00015311693424
C            1.52218587572170        1.16601683635727        0.00024786395023
C            0.26983595336772        0.55259887148147       -0.00087215735548
C           -0.05487748936999       -0.89742080257166       -0.00258966244252
C            0.73280027588147       -1.99036653694554       -0.00344771631844
N            2.08814883019159       -2.00637786630585       -0.00253413100293
C            2.91088625351353       -1.00160543656548       -0.00091888246997
N            4.20765666634309       -1.36604175735793       -0.00007200008089
H            4.41309951739219       -2.35091389689476       -0.00074449901735
H            4.95261045515440       -0.68957660377591        0.00107126592255
H            0.29710032190332       -2.98263369732313       -0.00486028116000
C           -1.46110885844941       -0.55524538193500       -0.00303462393956
N           -2.57886205289375       -1.17693160187091       -0.00449632098466
C           -3.74118715872901       -0.42527978538095       -0.00457387231922
N           -4.83721222130150       -1.20188226197666       -0.00664954948842
H           -5.74447522851884       -0.77105746121267       -0.00692364022908
H           -4.73001437825891       -2.20047852144951       -0.00789251198797
N           -3.95838150227634        0.86657719836171       -0.00296358032739
C           -3.11644589063779        1.90562787106091       -0.00099105340741
N           -1.81321839559593        2.00808844099681       -0.00023961457745
C           -1.07644059732151        0.90261073434217       -0.00122870380437
H           -3.63921812583869        2.85817250197381        0.00011336321784
H            1.55891619448198        2.24870314758460        0.00136676232582
