33
 energy: -62.842886854194 gnorm: 0.000429831065 xtb: 6.6.1 (8d0f1dd)
N            4.65834851216731        2.67284877676379        0.01911606951792
C            3.77105128159292        1.93716202573611        0.01346033338567
C            2.66306878919769        1.07362970953028        0.00678827382197
C            1.40866982607525        1.72401203618650        0.00503673022161
C            0.20309772918087        1.02073564345537       -0.00021355788054
C           -0.15158583817874       -0.41605639195007       -0.00320816698767
C            0.65852928743087       -1.54097339340050       -0.00595254919524
N            0.11317931806747       -2.77395621137970       -0.01235446367013
H           -0.88480292337492       -2.89963324118792       -0.01028939238490
H            0.70248615023622       -3.58944264462284       -0.01246325048210
C            2.08879312191373       -1.44611660125287       -0.00418298262578
C            2.73960607189258       -2.69259897365939       -0.00924928564699
N            3.25677038505550       -3.72318155769586       -0.01285254034482
C            2.95413637620804       -0.32477699210021        0.00145331250001
N            4.27663604802411       -0.61602263406888        0.00167610492961
H            4.95947351948751        0.12259862570026        0.00563667459697
H            4.58903446526996       -1.57219748458611       -0.00121864325102
C           -1.52737775051345       -0.08908656397625       -0.00619806195909
C           -1.14134395158121        1.38720300763627       -0.00601605405934
N           -1.81471037744320        2.50923133515527       -0.01790027566311
C           -3.13763015928013        2.50582701080678       -0.02938747776896
N           -4.04573937048145        1.54930752361959       -0.01589142727448
C           -3.96042283183333        0.23440421590985        0.00429435451121
N           -5.16696703862894       -0.38370494045589        0.03190393185686
H           -5.98826868734450        0.19434397829795        0.02535380640331
H           -5.25146004926049       -1.38466364711050        0.03435851579409
C           -2.79254694582907       -0.61946732777823       -0.00017618826390
C           -2.99363414785751       -2.00916261406473        0.00545461373897
N           -3.15651823574159       -3.14928829563187        0.00963874580364
H           -3.57406793643128        3.50096698125355       -0.05076231350066
N            1.32969250874358        3.06621124795716        0.00834387332512
H            0.41393387176948        3.48601018033609        0.00465951824839
H            2.15617849656686        3.63942425167712        0.01099138130311
