28
 energy: -51.410908535625 gnorm: 0.000677649619 xtb: 6.6.1 (8d0f1dd)
N           -5.45147787664655       -1.22053916399703       -0.00033340209379
C           -4.32188546484712       -1.01488681772403       -0.00151892170362
C           -2.92744578057970       -0.76200499795692       -0.00253601047872
C           -2.17408914327892       -1.92843079745243       -0.00262988156460
N           -0.84969345794948       -2.15172269080336       -0.00311897120441
C           -0.00632636176645       -1.18324554386969       -0.00287310077445
C           -0.12242157281400        0.32607545162884       -0.00195399994021
C           -1.26168919390831        1.13518297523696       -0.00185897518500
C           -1.07138434360934        2.53165621696290       -0.00045234894037
N           -0.90897157292735        3.66956800220173        0.00118294150926
C           -2.57403845779476        0.63371876091096       -0.00276138744146
N           -3.60028591386461        1.52735838073399       -0.00586682957000
H           -3.40412662168371        2.51280833947062        0.00016540776693
H           -4.55451512016132        1.21384471206859        0.00047331965725
C            1.26109316598485        0.43293205293377       -0.00168666369876
C            1.41907511377032       -1.05114205790684       -0.00264426608278
C            2.52916419568934       -1.83192187668847       -0.00281320050491
N            3.80554993425952       -1.41720877366381       -0.00241717166395
C            4.24211340961166       -0.17293635666324       -0.00167513509501
N            5.59005086945123       -0.11085998542539       -0.00164365266638
H            6.09606427770463       -0.98038819580493       -0.00223136989321
H            6.08752848937325        0.76127509050760       -0.00115830233566
C            3.59185464752962        1.12275003093426       -0.00084766162278
C            2.25851722208527        1.41030947764192       -0.00086494168807
H            1.95081474855983        2.44875206957744       -0.00019747975050
H            4.27930293362304        1.95848821574716       -0.00021127770923
H            2.42882607580787       -2.91197896009609       -0.00339797265205
H           -2.74421698311881       -2.85230638470441       -0.00226121547341
