26
 energy: -42.366988325325 gnorm: 0.000487196822 xtb: 6.6.1 (8d0f1dd)
N           -4.54746126243081       -0.39629547383035        0.04449570654506
C           -3.18417355308793       -0.33910785165953        0.01105119179910
C           -2.54618949102429       -1.60045542585304        0.01668659966568
C           -1.19782357972547       -1.91352279547033        0.01494127363857
C           -0.18242851739337       -0.98759712093586        0.00409396326550
C           -0.23594735590818        0.48499191887017       -0.00149981990430
C           -1.31812123332875        1.37789185280613        0.00011781677439
N           -1.01282715232601        2.69212009314150       -0.01653313546797
H           -0.03967308545221        2.94816319718677        0.00619972304513
H           -1.72246600004356        3.40061572176922        0.03053235140914
C           -2.64889564512832        0.95890368635468        0.00418600006853
H           -3.38501795599500        1.75608325703654        0.00339704020346
C            1.15398189299363        0.58721925914293       -0.00107294641578
N            2.04912157481326        1.54292272432347       -0.00312116350524
C            3.33852710168244        1.22880583843394       -0.00263362135012
C            3.97795783391495       -0.02364863589328       -0.00472186386365
C            3.48407054276791       -1.32043970150336       -0.00474694712833
N            2.22121422547998       -1.78630809582105       -0.00131978895730
C            1.23642992474396       -0.95342640166118        0.00269495218805
H            4.21644087899225       -2.12084522155080       -0.00793961730310
H            5.06136712642736        0.03951953607203       -0.00746076284167
H            3.98653593939924        2.09941763579951       -0.00226190400507
H           -0.92559894889172       -2.96089534366513        0.02086055021231
H           -3.22895429178370       -2.44168211845685        0.02500226578827
H           -5.01417816328008       -1.27857316665898       -0.06279275390182
H           -5.09143469051562        0.43939726272285       -0.07156402875879
