24
 energy: -39.726317714018 gnorm: 0.000999958182 xtb: 6.6.1 (8d0f1dd)
N            4.77552138240239        1.75489225725412       -0.00040754120581
C            3.82762590775126        1.10586062392849       -0.00165686667251
C            2.66911423067170        0.29889958177244       -0.00180213900360
C            1.45377894621672        0.96189525750752       -0.00185640792409
C            0.22386129723006        0.32319868630543       -0.00232989666618
C           -0.10482760113554       -1.13005344442650       -0.00272017812625
C            0.67092309514872       -2.22986347329731       -0.00295914067783
C            2.09993895707974       -2.19218348005528       -0.00276437947637
C            2.92921879165448       -1.11350303291449       -0.00226120971281
H            3.99046123517391       -1.34160468096760       -0.00221849672323
H            2.58078607943515       -3.16198038488592       -0.00309919297962
H            0.20786825228959       -3.20858153871477       -0.00330438114752
C           -1.51507065233142       -0.79965654532147       -0.00283853239853
C           -1.13317520930784        0.65605622782584       -0.00252632128460
N           -1.83599260824803        1.77306096293801       -0.00253709327509
C           -3.13765769774252        1.78035708423345       -0.00271498565002
C           -4.09281292600072        0.71296167915639       -0.00274895215830
C           -3.93774812839624       -0.64322474421223       -0.00278979721633
C           -2.72068861066627       -1.39581934689105       -0.00287369555008
H           -2.80309284305497       -2.47561499457312       -0.00294548985024
H           -4.84482136336059       -1.23502863227915       -0.00277240188882
H           -5.11851801115031        1.06455981586542       -0.00271764971177
H           -3.56196007581857        2.77896927850003       -0.00276105934041
H            1.46269848635929        2.04496147465178       -0.00157248065994
