31
 energy: -54.586670479486 gnorm: 0.000879877530 xtb: 6.6.1 (8d0f1dd)
N            5.69528201807096        1.05573564101989       -0.03807309267433
C            4.67115788329454        0.52716521600130       -0.01602388676295
C            3.40685774452901       -0.08170540725781        0.00397225987829
C            2.30986980540288        0.78842543551354       -0.01259589514598
N            2.51528369013019        2.12604006279635       -0.02254235832095
H            1.73604864348641        2.74904820553668       -0.11961078972973
H            3.45166101459536        2.48885741786407       -0.08463850774307
C            0.97679700994234        0.32000517323606       -0.00144173906706
C            0.46386860571928       -1.06416874330016        0.01100997315929
C            1.04097229409563       -2.27465254522378        0.02965498447899
C            2.46268613490804       -2.46215069349458        0.04296138975168
C            3.43640784168807       -1.51950009836448        0.03317388943227
H            4.45312016186771       -1.89973689108366        0.04475452755404
H            2.78863868764054       -3.49319810203058        0.06259359581344
H            0.42059631186031       -3.16083577710506        0.03659620072374
C           -0.88988460343506       -0.51565155396247       -0.00185064753178
C           -0.31991294283669        0.84879539632816       -0.00880000389808
C           -0.99773009767810        2.06688370506630       -0.00476316089418
C           -2.37725139127222        2.18171381472437       -0.00456906444381
N           -2.93232938773316        3.43986034867102       -0.05413378441312
H           -2.37801816142145        4.22420133958291        0.24228422065197
H           -3.91952201039684        3.48465427867756        0.13294395308472
N           -3.34189829226265        1.23184375887610       -0.01565170317847
C           -3.31493696626219       -0.05905502413591       -0.02955847154185
N           -4.52672535373478       -0.66404218780679       -0.05354652682736
H           -5.34653567324127       -0.08497007179009       -0.07789973553442
H           -4.61396673564446       -1.66456725366134       -0.06385165394477
C           -2.15957884304184       -0.97307741293250       -0.01004918670103
C           -2.41826162666911       -2.35846673623187        0.00013819707216
N           -2.67063648784805       -3.47929625861415        0.00885731200757
H           -0.43192773805264        2.99004037960020        0.00086968434590
