33
 energy: -58.032348978301 gnorm: 0.000779057422 xtb: 6.6.1 (8d0f1dd)
N           -4.80774383102793       -2.37425153941927       -0.01036395943484
C           -3.95207990433262       -1.60063207080831       -0.01057991258758
C           -2.93420818250065       -0.63879486821511       -0.00758474936399
C           -1.61779938763857       -1.11966114690249        0.01524794090945
C           -0.51898012444422       -0.30988598115636        0.00701916220752
C           -0.40773867612986        1.17615152255087        0.00578470688281
C           -1.40561516952921        2.12624361564269        0.06147050993111
N           -1.10686302788372        3.45380726618729        0.12104022113548
H           -1.87228681879918        4.07796663770832        0.31070081389354
H           -0.18139754446892        3.73340604008301        0.39109537631275
N           -2.72849850679089        1.88835746693818        0.01329605229069
C           -3.37038880609546        0.73976703779241       -0.05234114912412
N           -4.70755364413771        0.91159843310155       -0.15687865665623
H           -5.06242409526034        1.85096209579472       -0.18325707766513
H           -5.33451151952558        0.12611078874232       -0.19185443222610
C            1.00683993907908        1.07331464978924        0.01199099722377
C            0.89219076601744       -0.41663647967538        0.02400102897671
C            1.85193195304188       -1.40345694382770        0.04298255286415
C            1.41916306756738       -2.74559125419592        0.04218629641588
N            1.08928091124342       -3.84653156190154        0.02884721135605
C            3.25572829518645       -1.15749300800996        0.05319388466188
N            4.06358573908102       -2.26080893037763        0.15350347493737
H            3.65602103333821       -3.17171050341198        0.02797639573730
H            5.04803090897148       -2.16686408880876       -0.01999753058400
C            3.89205516520734        0.08260653357265        0.00232844644188
C            3.43956921668452        1.40435970700207       -0.04034713493863
N            4.41686969605242        2.37889257150098       -0.02955119854215
H            4.15202048680352        3.30568438040873       -0.31687263996990
H            5.35599838445004        2.10688481750140       -0.26618667588350
C            2.10996819079740        1.87270292944431       -0.03272382314332
H            1.97985926290349        2.94833745012794       -0.07366935787160
H            4.97581626167214        0.00121663287266        0.00329265482101
H           -1.48238326943216       -2.19449388235144        0.03276063859187
