30
 energy: -50.858611290519 gnorm: 0.000823493136 xtb: 6.6.1 (8d0f1dd)
N           -5.55075554775384       -1.08748245323225        0.00386743590605
C           -4.41245694884597       -0.92539808038442       -0.00633552466168
C           -3.01185973434899       -0.73793304468524       -0.01027546658108
C           -2.30031301780110       -1.98120755928391       -0.00506457569944
C           -0.95821854481504       -2.22794843321806       -0.00095553226435
C            0.02350753143398       -1.23459384705328        0.00396729736793
C           -0.13813337086235        0.23934380749320        0.00607042999666
C           -1.22180232215390        1.05387991897531       -0.00330747781136
C           -1.00258976727236        2.44998048771634        0.00510698717878
N           -0.83105709685864        3.58561001556080        0.01733338129706
C           -2.59832697319517        0.59258709718177       -0.01708905233187
N           -3.54181595412836        1.57484666945046       -0.06346846979485
H           -4.51638554394457        1.33426959806522       -0.00690755997777
H           -3.27225281086808        2.53881708672396        0.02532099925855
C            1.30691452151416        0.37829865962611        0.01558102532733
C            1.41133639221365       -1.09868552785793        0.01217163772502
C            2.56108250070957       -1.90138298808619        0.01938233484400
C            3.83417967222039       -1.42975641448851        0.02341995416522
C            4.32446560073265       -0.06555586073290        0.01862660089050
N            5.69005954908452        0.01197449525407        0.05837938248344
H            6.13382474546946        0.90394549923078       -0.07465631240565
H            6.24223250761067       -0.80720027515133       -0.12329183025341
C            3.63270765924211        1.12498563123421        0.01874162657971
C            2.23275338717112        1.35706235759150        0.02139292005749
H            1.90965651428649        2.39005566564919        0.02183730482036
H            4.24610554504322        2.01777582046947        0.01721096131870
H            4.62536972002117       -2.17009430896981        0.03275375308898
H            2.41759657885590       -2.97510806384038        0.02177641961593
H           -0.62963607232898       -3.25895520568368        0.00049168256527
H           -2.95618974123176       -2.84357160215447       -0.00446980730551
