28
 energy: -51.429209654241 gnorm: 0.000876255655 xtb: 6.6.1 (8d0f1dd)
N            5.33170914016259        0.70542214820144        0.00298208823022
C            4.25423356711062        0.30281141447874       -0.00167378763910
C            2.91635240744391       -0.13204459907431       -0.00005865377862
C            2.71715150204256       -1.52007070534647        0.00014106569615
N            1.67987849927565       -2.31905491707524        0.00008305841836
C            0.37016401527696       -2.01361962682762       -0.00036341310737
N           -0.42449353478839       -3.09309833044047       -0.00047073280515
H           -1.43014228016001       -3.02851065769718       -0.00083373738061
H            0.02167989262060       -3.99505361785965       -0.00021036666051
C           -0.15469714591221       -0.71316952547921       -0.00079194822054
C            0.57332824969758        0.57091095086715       -0.00078034081749
C           -0.63930587146871        1.28592745153755       -0.00134996838220
N           -0.97554052044593        2.53691549341273       -0.00172726173277
C           -2.24855213056567        2.92766479382013       -0.00227750896111
C           -3.43695771693908        2.19409247726542       -0.00254897342651
C           -3.68441843358588        0.82865762272493       -0.00235819874907
C           -2.75801012107535       -0.23433914540963       -0.00183490040900
C           -3.25533639890173       -1.55434578959905       -0.00131057694561
N           -3.60278161882969       -2.65024304629738       -0.00213002624595
C           -1.39236735535779       -0.04165662676266       -0.00140353240987
H           -4.72643322866602        0.53202795920519       -0.00258771623704
H           -4.32925089779006        2.80961397416190       -0.00294455682384
H           -2.34979613698885        4.00739039036061       -0.00256483745615
C            1.92297564744945        0.89617044488454       -0.00041949592627
N            2.27587707396992        2.19025377969586       -0.00059428129106
H            1.54541476646027        2.88376641919714       -0.00092235499693
H            3.24427330424499        2.46401256856679       -0.00039159018801
H            3.64669156572028       -2.08923705711119        0.00031596384606
