29
 energy: -51.140668728296 gnorm: 0.000364040214 xtb: 6.6.1 (8d0f1dd)
N           -1.18012141158602       -4.19778830323811       -0.00042404445416
C           -1.36342906725582       -3.06200482797882        0.00014883029682
C           -1.60058463411430       -1.67317007403717       -0.00004166509501
C           -2.97183127517581       -1.29911368223532       -0.00049811524954
N           -3.55450751205482       -0.12574258812805       -0.00025803770736
C           -3.05621795412547        1.08587296110104       -0.00001213502625
C           -1.71482734831352        1.55589458375432       -0.00047517341783
C           -1.57646570936902        2.95802173938533       -0.00050438993893
N           -1.47417298649501        4.10393167569517       -0.00043884518187
C           -0.60323228302370        0.74159029241907       -0.00069517224743
C           -0.54930465131902       -0.78235312422455        0.00019244499182
C            0.85670554045575       -0.71015699876681        0.00032612857359
C            0.80436322599117        0.76895631230942       -0.00092903781614
C            1.82565093120692        1.73356531593186       -0.00232501674068
N            1.52107775406310        3.04520915017701       -0.00424279934645
H            0.56959045649393        3.37380039551092       -0.00352495469609
H            2.25924978344395        3.72704011996227       -0.00454085061647
C            3.18784006907389        1.38288636999396       -0.00221567460906
C            3.78363830120586        0.13394330170048       -0.00064234716993
C            3.27763216738413       -1.15399698090074        0.00113892518925
C            1.94365087804997       -1.60013272155139        0.00164160530893
N            1.73262049165759       -2.93003227069762        0.00386932980643
H            0.80676495312595       -3.32511811478672        0.00328232951161
H            2.51717971733302       -3.55793321432235        0.00398503662315
H            4.01683330207039       -1.94582589069321        0.00226658857417
H            4.86748444742160        0.17230425147882       -0.00081617157032
H            3.86919957768098        2.22500193904665       -0.00350388426258
H           -3.82138651805582        1.85705824443389        0.00042802352521
H           -3.68058978246984       -2.12244354133939       -0.00092619755491
