22
 energy: -40.271744510042 gnorm: 0.000850932814 xtb: 6.6.1 (8d0f1dd)
N           -1.71212084748802       -3.50004636622180       -0.17364200464624
C           -1.75623803829604       -2.35544379836469       -0.12279467227114
C           -1.79233071146251       -0.94173412821369       -0.04598090572870
C           -0.59875715186052       -0.25290311710887        0.00444348956742
C           -0.36449174157089        1.24820702399967       -0.05948766285600
N           -1.15117467749660        2.27345727660978       -0.10339293924653
C           -2.47298400560432        2.17395525118911       -0.02956177424337
C           -3.31652602101280        1.05825969171283       -0.00907250028409
C           -3.04739081308208       -0.30343240211433       -0.03197858291081
H           -3.90599337383222       -0.96371333008173       -0.04395514442457
H           -4.37122213199566        1.30725128351452        0.00473702080996
H           -2.95928326539091        3.14304300110687       -0.01286426256112
C            1.02877024224625        1.01872873337946       -0.12396854140944
C            0.78900804564925       -0.46458291873036       -0.05708525614408
C            1.72466404774758       -1.42049396302883        0.30047108521524
N            3.01981954283029       -1.27136579603756        0.12947858123548
C            3.64867904720096       -0.17341669098319       -0.23877079809172
N            3.39948673754875        1.09067913106914        0.00967863974528
C            2.21751184716512        1.65711541254459        0.16248309318219
H            2.22658362820820        2.69530379508721        0.47421204317658
H            4.61865731263518       -0.35443407554426       -0.69857511095841
H            1.40733595136077       -2.37675585308429        0.70428678374373
