33
 energy: -58.041821040666 gnorm: 0.000773899434 xtb: 6.6.1 (8d0f1dd)
N           -5.31229165287928       -1.34286191893110        0.12579521486253
C           -4.26428057716168       -0.86155944338036        0.06624422076016
C           -2.98795972607403       -0.29261717778735        0.01748021683288
C           -1.89508052707337       -1.20102245522584        0.04996317567294
N           -2.16912655851606       -2.53226523966041        0.07707346817352
H           -3.11586527207016       -2.83617344043037        0.23150072761381
H           -1.42316058270485       -3.17832909087633        0.25739569116971
C           -0.58019204664976       -0.77122312326169        0.00444295359175
C            0.01866059345548        0.58501921512720        0.02012140669181
C           -0.63107108838829        1.82177281506313        0.07615640336314
N            0.04601132789632        2.97539913520115        0.24164415260531
H           -0.48876789178944        3.82614963306718        0.22262334684579
H            1.05064341018955        3.01923898582549        0.22718455232713
N           -1.95039215275016        2.00465966466770       -0.02095875633690
C           -2.93820798832261        1.13174938872327       -0.09321930588924
N           -4.13291222610277        1.74441671461873       -0.28127020779659
H           -4.14461483174364        2.74821382167214       -0.30085883728349
H           -4.99266103216832        1.22417676804536       -0.28991713464762
C            1.31298025865521        0.02629413446567        0.01924924809527
C            0.71004316040339       -1.35306027168829       -0.00381305281048
C            1.30223494287924       -2.58123785711138       -0.06549727250660
C            2.68419384454832       -2.79219665354218       -0.08136191822701
C            3.72147526199566       -1.87890128969727       -0.04710653652111
C            3.75510079230244       -0.47861707501134       -0.00226905419798
N            5.00290051091301        0.09484932440333        0.08727996693066
H            5.09445254281223        1.08431253365858       -0.06995055262195
H            5.80377948686384       -0.47137146211931       -0.13100078052191
C            2.64373756046487        0.40951712961649        0.00572841427445
C            2.93718312621982        1.78367116545556       -0.01084188565555
N            3.17386734209555        2.91116648404405       -0.03849125129281
H            4.71102272896140       -2.32496917133200       -0.05963508834656
H            2.99343216440997       -3.82909411634546       -0.12796333441111
H            0.67830697882810       -3.46593432605436       -0.11312745594398
