25
 energy: -48.240256040364 gnorm: 0.000256657135 xtb: 6.6.1 (8d0f1dd)
N           -4.84958878465535       -1.28753713063213        0.00137189319644
C           -3.90200906978063       -0.63684596154145        0.00119892795768
C           -2.72227706500425        0.13604942950157        0.00039906806447
C           -2.94234706288237        1.53409025335730        0.00055086259663
N           -2.18478135142886        2.59729623445239        0.00006086793919
C           -0.84471075504494        2.61542049860919       -0.00068684740382
C           -0.01696935776176        1.53545514223971       -0.00097771986892
C            1.39799582207222        1.28357901061991       -0.00173826534460
N            2.46731584865226        1.98305323319048       -0.00239905452796
C            3.69178007061420        1.39637285014635       -0.00317671152579
N            4.09009720080360        0.16070952708171       -0.00311648555327
C            3.41782345969644       -0.98655007733270       -0.00244445331105
C            2.04043855498676       -1.23792732424036       -0.00181201365265
C            1.59165714201436       -2.57474637431244       -0.00150369381666
N            1.16013986612845       -3.63986537231309       -0.00089622414831
C            1.09822343781567       -0.20725067179335       -0.00152772904455
C           -0.26628895461246        0.07423143763571       -0.00082273895433
C           -1.50478181211848       -0.60297400384816       -0.00020227487957
N           -1.55526469825322       -1.93663153418208       -0.00012595611090
H           -0.71839930123326       -2.50154979961176       -0.00045685454040
H           -2.45038975781894       -2.40253962624292        0.00034189460143
H            4.07155449334070       -1.85408410722249       -0.00249752796139
H            4.49808331247962        2.12371589110552       -0.00392942705661
H           -0.41648312962098        3.61148087177550       -0.00106543703257
H           -4.00016560918877        1.79516580835762        0.00123510607752
