30
 energy: -50.073542814756 gnorm: 0.000928403358 xtb: 6.6.1 (8d0f1dd)
N            2.53228208019112        3.33413958330545        0.02755695613353
C            2.47012156907230        2.18470315243614        0.01507392729894
C            2.37839735348782        0.77861901625003        0.00065984521710
C            1.12943090528254        0.18436059060251        0.00159348840377
C            0.78709552059068       -1.28956246178418       -0.01300570111355
C           -0.58483960326796       -0.94213459322112       -0.00358499287295
C           -0.24448664386000        0.49086038067023        0.00635901756464
C           -1.10732806178713        1.59777505996132        0.01996041076614
N           -0.60896805669457        2.85346850413697        0.03643893019513
H           -1.23347259823058        3.63944264976646        0.05548035195256
H            0.38189938192792        3.02604926228494        0.04640377872233
C           -2.49801024106248        1.44401609094255        0.00721590156228
C           -3.29212388571689        0.28796089598765       -0.00912075029833
N           -4.64148538898589        0.49670930773570        0.00278923131367
H           -5.02304890622497        1.40443609954493       -0.19112392876784
H           -5.22300535004705       -0.31194970310793       -0.12751557513598
N           -3.01628574771051       -1.01597020846507        0.01086372542431
C           -1.81923062453089       -1.59168354668518        0.02080046219614
N           -1.86033303547109       -2.95029536946225        0.01148585013511
H           -1.02581817008237       -3.46969023447951        0.21388048851393
H           -2.75517944146564       -3.38307749137606        0.15991990601967
H           -3.06083835143304        2.37097399107195        0.01027998494787
C            1.58613892328972       -2.39325757156949       -0.04386950327357
C            2.98654921748105       -2.36923596874150       -0.04938042063893
C            3.84508089321799       -1.27959189574903       -0.03323143133067
C            3.60428392454950        0.08770296651393       -0.01195049865864
H            4.48370543488757        0.72109388665456       -0.00638887720438
H            4.89833903884536       -1.53904859155280       -0.04121291458760
H            3.46863331706602       -3.33890662226281       -0.07062288420289
H            1.12178859508181       -3.37347283430864       -0.07136141838211
