28
 energy: -51.409093938892 gnorm: 0.000648130364 xtb: 6.6.1 (8d0f1dd)
N           -5.96417664315389       -0.00837151483145        0.03652820941771
C           -4.81706548324376        0.05256373385459        0.01537193159973
C           -3.40413835201740        0.11839870756319       -0.00103930050514
C           -2.91839401859500        1.44167264217058        0.03256747182546
N           -1.69589735100870        1.93156765846741       -0.00876753372295
C           -0.64073430992502        1.17033112575571       -0.00277584427221
C           -0.43017407846598       -0.33175668850670        0.00919998626980
C           -1.34118898637034       -1.33775107307690       -0.06922861653105
C           -2.74242744849675       -1.13525614508270       -0.06465370300276
N           -3.51795063522675       -2.24974199319575       -0.13438408015231
H           -3.10111962773110       -3.16239968915598       -0.14216546906097
H           -4.52015794296330       -2.17518341028452       -0.10628768111889
H           -1.01208037215409       -2.36862437151437       -0.15333317590471
C            0.97270368851403       -0.11276351247380       -0.03606417320158
C            0.75140750087214        1.36456586301629       -0.05726448121403
C            1.66728322289143        2.38050759738220        0.11533434529266
N            2.97079700331735        2.26796315320294       -0.02153736048990
C            3.68702392643455        1.17566183169629       -0.20951413985145
C            3.42810841980083       -0.18053285846157       -0.02331439664562
C            4.54124928796057       -1.03680509241228       -0.06223244668419
N            5.43050513084128       -1.76774670323172       -0.07921401452540
C            2.13821943885864       -0.83150696216066        0.09659927082335
N            2.12754199679637       -2.16998211583479        0.27239196966451
H            2.99340031537421       -2.67632698102436        0.35304839047235
H            1.25781358799012       -2.66888581866294        0.30082328556306
H            4.71468659362356        1.40833887531749       -0.48312000697023
H            1.31793678526267        3.37512459691701        0.37027518526316
H           -3.68392051838573        2.20994558406704        0.07825995026185
