25
 energy: -49.034465246007 gnorm: 0.000586637442 xtb: 6.6.1 (8d0f1dd)
N            5.42634067909002        0.00850446167858        0.04001345342046
C            4.28136770561324        0.00590207431941        0.01442699161761
C            2.85768422994274        0.00415874229204       -0.01636795212693
C            2.29445362169362        1.28521184267252       -0.03427557306802
C            0.93947374454460        1.64553185606918       -0.06213776200090
C            0.62444035229514        3.02835698210234       -0.10478610641208
N            0.35662812655275        4.14175329028904       -0.13083951098723
C           -0.11017959386476        0.75012996253534       -0.03920358771491
C           -0.10811260413870       -0.74997105849184       -0.03958767458923
C            0.94405791321834       -1.64248176320934       -0.06304877779125
C            0.63276720945037       -3.02612350525917       -0.10652267333206
N            0.36834651243291       -4.14020473510279       -0.13166386707613
C            2.29797962877528       -1.27845818234846       -0.03497033845655
H            3.00759333459149       -2.09755788787941       -0.02931908774733
C           -1.51882112949098       -0.75299223700067       -0.06954053721986
C           -1.52094599284309        0.74922843820290       -0.06941638241811
C           -2.59495373042736        1.56099246859473        0.24797991626954
N           -3.84637371117211        1.19112025541827        0.08126466645389
C           -4.28706000825392       -0.00584603209952       -0.23643463463985
N           -3.84296015835532       -1.20152070742159        0.08177035014878
C           -2.59050972619057       -1.56783650127678        0.24809079315887
H           -2.43331494748105       -2.58078980428150        0.60252893268493
H           -5.26326402417849       -0.00733082170984       -0.71701076888386
H           -2.44075845206543        2.57434361092189        0.60265268380099
H            3.00176169186286        2.10630580818532       -0.02835328148671
