30
 energy: -54.874463923869 gnorm: 0.000753754727 xtb: 6.6.1 (8d0f1dd)
N            5.33471231569368        1.45297964393657        0.00773397831440
C            4.35023581002760        0.85559520036363        0.00192186445630
C            3.12779423450205        0.16468897567027       -0.00325100742274
C            1.94747416319017        0.97946462779096       -0.00200973739226
N            2.06228176523493        2.32090563395377       -0.00348168091605
H            2.96601792977432        2.76179871181127        0.01603204806753
H            1.21956163549989        2.87014481768051        0.01347738556443
C            0.68529143461322        0.42081982287175       -0.00375256790362
C           -0.63000946979860        0.92898011712065        0.00334296548705
N           -1.17558759853738        2.09944357742312        0.00341397848942
C           -2.52295185614801        2.24160704974223        0.01246773688884
N           -2.92396803412742        3.53800696541211        0.05855336031960
H           -2.24322917494851        4.26348284560631       -0.07250314271110
H           -3.90248147061606        3.73471518794124       -0.04812262450395
N           -3.52136674822214        1.37250513706932        0.00452150344513
C           -3.53984018611464        0.05847594775936        0.00322305827758
C           -2.49484896034034       -0.88801755182174        0.00587507889479
C           -2.83175818585971       -2.25302495738525        0.00297055277771
N           -3.05598755454019       -3.38197259797653        0.00120772068735
C           -1.16016502149813       -0.50450787422855        0.00647929860928
C            0.15655914811572       -0.96845563432828       -0.00101787339781
C            0.85236976726992       -2.18871943041464       -0.00605084630800
N            0.17292642166645       -3.34975815998941       -0.00631089032055
H           -0.83457188342379       -3.37147168133462       -0.00229714608600
H            0.67060704868631       -4.22303538893616       -0.00877870582892
C            2.26081413850690       -2.24167569641696       -0.01066895503317
C            3.20322848749491       -1.22971756113595       -0.00839702624970
H            4.22739462881468       -1.59131182061468       -0.01050961741845
H            2.66817164322929       -3.24570351732335       -0.01504918821512
H           -4.54967948744504       -0.34446253934675       -0.00434616407201
