28
 energy: -51.416603791490 gnorm: 0.000750952028 xtb: 6.6.1 (8d0f1dd)
N           -5.86438633309294       -1.09560188027672        0.00155133704762
C           -4.73945305261725       -0.85966448772295       -0.00200740795517
C           -3.36114222642503       -0.55235631731358       -0.00073846087484
C           -2.51823074279902       -1.69694561609843        0.00274988839977
C           -1.14812260408839       -1.77326956673850        0.00334273309606
C           -0.32894434808764       -0.64630964369221        0.00047979867490
C           -0.74319613680921        0.79224971230517       -0.00292156255040
N           -1.84460052279103        1.43466125358334       -0.00497244636661
C           -3.06282240286101        0.82299475592197       -0.00431579958421
N           -4.06919071810532        1.72455768231232       -0.00765472180650
H           -3.82244709757258        2.69830063236520       -0.00990291735792
H           -5.03277069279649        1.43938765556630       -0.00740290531592
C            0.65844270104252        1.17719959360514       -0.00322850697239
C            1.01275002926806       -0.26089234997168        0.00003367827480
C            2.29309762209916       -0.84513546148711        0.00121853355971
N            2.40735957064666       -2.18522961071145        0.00378302942402
H            1.58651249416536       -2.76295916712702        0.00410189325097
H            3.31840703411084       -2.61467618711030        0.00424085030944
C            3.45668170341118       -0.04355764232851        0.00004675422144
C            4.67869743165004       -0.73804849275926        0.00233557011541
N            5.65987592747480       -1.34025191973206        0.00193569224415
C            3.57736629465594        1.38103044839937       -0.00216019629887
N            2.75466288570598        2.37936495751592       -0.00466306396064
C            1.39784722513354        2.30349367288533       -0.00552088428925
H            0.91219681010723        3.27229649561989       -0.00810516690430
H            4.61663076427368        1.70896940996229       -0.00170807941232
H           -0.70210501564569       -2.76039422492492        0.00619094372823
H           -3.06013605115337       -2.63510885494756        0.00507624710277
