31
 energy: -54.584595904874 gnorm: 0.000706272590 xtb: 6.6.1 (8d0f1dd)
N            1.89648707029504        3.72735569122801        0.06162859379218
C            2.12027886955873        2.59895470808012        0.04186579442066
C            2.40164030116805        1.21925158783017        0.01814591346121
C            1.38129715453000        0.29398583322023       -0.00084124741923
C            1.50132366922662       -1.21638792588687       -0.01562770587784
C            0.09443430912403       -1.30355768018585       -0.00982495491030
C           -0.02630218817418        0.16353316343903       -0.00310358203919
C           -1.14843158654305        0.99590446385101       -0.00823971705573
N           -0.99211507435146        2.33333764915785       -0.01306181844071
H           -0.07775708990470        2.75390779773139       -0.00355809804563
H           -1.79866703106189        2.93513238746175       -0.01311345471844
C           -2.47666814984267        0.48638056361456       -0.01267687931214
C           -3.48105231387150        1.46771475592881       -0.02515671545257
N           -4.30485361200476        2.27506185155279       -0.03560634552927
C           -2.94675893113328       -0.85953146068691       -0.00338091772422
N           -4.29956916266065       -0.99420701477060        0.00223448185299
H           -4.89487324993986       -0.18473552804873       -0.01788953946869
H           -4.71953271230249       -1.90491286211220       -0.01112559383352
C           -2.23763627487396       -2.06377031454441        0.01059727986252
C           -0.86623079059055       -2.31723892683490        0.00486054893069
N           -0.44811028499448       -3.60973856600854       -0.01769895311220
H           -1.10931418385147       -4.35324419955323        0.11595365249362
H            0.52551456617463       -3.80988150049041        0.11751009540725
H           -2.86397769524540       -2.94937582237355        0.02290781930224
C            2.61974822525975       -2.00296659735413       -0.04800691212927
C            3.92956464629086       -1.50452245902568       -0.05201366461913
N            4.40190365910347       -0.27307818654068       -0.01512596256348
C            3.78408126139763        0.87839883953430        0.02009907714241
H            4.46700824242047        1.72402138100016        0.05055107033676
H            4.72434234222450       -2.24509832327530       -0.08695278222838
H            2.51722023237257       -3.08240460503776       -0.07970859622257
