28
 energy: -51.421434409779 gnorm: 0.000797438272 xtb: 6.6.1 (8d0f1dd)
N            5.69772649480811        1.29510757053705        0.05679781673633
C            4.64853157360395        0.82597423647498        0.04132097313355
C            3.35671875257828        0.26581615717857        0.02321795732077
C            2.26909030218765        1.18929834851245        0.03890081771354
C            0.98151100708946        0.78837576773057        0.01276824096892
C            0.35271482010966       -0.56034035642149       -0.01892402845582
C            0.99831454553670       -1.81786420552337       -0.02031754577029
N            0.29237269499482       -2.95564393818996       -0.00997850484809
H            0.81340214799521       -3.81724725169675       -0.00998760441519
H           -0.71498224518858       -2.97714726073369       -0.00932292029292
N            2.31934265203203       -2.01794402550679       -0.03337051079295
C            3.29423300319547       -1.12763363242532       -0.02348725036850
H            4.26680261129656       -1.61810729428112       -0.05275865898507
C           -0.92266297751537        0.00603319341747       -0.01176290126930
C           -0.33032129355936        1.38255572136041        0.01006794579661
C           -0.90324518681643        2.60401772407535       -0.01240054962266
C           -2.31475394245962        2.78804728580743       -0.05950854462334
N           -3.29393966320865        1.94095157995403       -0.03538213661857
C           -3.33119066632135        0.60077282827818        0.02317902260553
N           -4.60613282918947        0.13942292823178        0.11923006314214
H           -4.81313958400936       -0.84244744533687        0.06997273464768
H           -5.34778542642790        0.81389155819698        0.05971487886164
C           -2.27669294966270       -0.34521900824872       -0.00512262151916
C           -2.62446359637425       -1.70350752750465       -0.01847761975008
N           -2.89568896215998       -2.82338947423281       -0.03451212012787
H           -2.65591188094039        3.81810960458846       -0.12628012502361
H           -0.28499392794320        3.49149808580689       -0.01205115210711
H            2.51107193674880        2.24422217005050        0.06711277276384
