27
 energy: -51.699001104592 gnorm: 0.000914450535 xtb: 6.6.1 (8d0f1dd)
N           -4.94980124656556       -2.21937465977583        0.00182276884214
C           -4.02402484644162       -1.53414715126366       -0.00101052558509
C           -2.90592093597252       -0.68455148370434        0.00071325992581
C           -1.63937494480330       -1.32857272500785        0.00049046108872
C           -0.46857621398509       -0.65298068496357        0.00090230193641
C           -0.19395416012242        0.81382514099111        0.00131128167098
C           -1.08930110547523        1.87514788428890        0.00118053302505
N           -2.39299010988750        1.81163416041026        0.00129589672050
C           -3.18306580023644        0.70835150229949        0.00142919721832
N           -4.47742986767131        1.07449990323534        0.00209709693449
H           -5.21947110457481        0.39390497379143        0.00219454164906
H           -4.68044137998809        2.06004661086606        0.00248762245708
H           -0.69523934989428        2.88834163532772        0.00097791015333
C            1.18611795110217        0.59170246536433        0.00118656414995
C            0.94382755437113       -0.89853048607076        0.00072186822040
N            1.70872438318284       -1.92815492943424        0.00043626938190
C            3.06587294753645       -1.79773598883838        0.00041424972684
N            3.69994630303859       -2.98683488363692        0.00011725051381
H            4.70356318045430       -3.00840996106050        0.00011333218700
H            3.15706376722845       -3.83126979954341        0.00001016149428
N            3.86940848449113       -0.74720003361114        0.00062979158490
C            3.62389139643213        0.54667695804501        0.00103347867172
C            2.40849967461221        1.25372092276403        0.00140598100928
C            2.43747989824817        2.66484174261258        0.00179951924754
N            2.44592015061182        3.81233352881658        0.00265242500281
H            4.53222549715839        1.14341019214040        0.00107672000639
H           -1.63899915184956       -2.41067735114265       -0.00017976983363
