31
 energy: -54.585280226884 gnorm: 0.000723444003 xtb: 6.6.1 (8d0f1dd)
N           -5.43251809895918       -1.30639494405154        0.05337204209823
C           -4.30294296535594       -1.09646405913912        0.02606884560724
C           -2.90883945436141       -0.85172902826948        0.00647390671458
C           -2.15794448064065       -2.03299701912705        0.04048615721217
C           -0.77956119343717       -2.21678207923877        0.03364851517482
C            0.13780910115327       -1.20295457213566        0.00716854243043
C           -0.05330435703996        0.29996643621376        0.00169311586699
C           -1.22249053742741        1.04091132131918       -0.02053852981822
C           -1.11556673763473        2.44355143202921       -0.02451868372803
N           -1.02699975556527        3.59198443821687       -0.01606686677812
C           -2.54513660853559        0.51670168247608       -0.03746475277518
N           -3.56442054986063        1.42541724082326       -0.13604242452539
H           -3.36841659046094        2.40543400953951       -0.03145567445204
H           -4.51453257059757        1.11597763831157       -0.02673681325208
C            1.34343930522119        0.46913807380584        0.00914711921053
C            1.53109764879191       -1.00803057471151        0.00577344916409
C            2.68583086111614       -1.78182731098420       -0.00774028668784
N            2.59346381383318       -3.13333089083045       -0.00238992409666
H            1.69682939055860       -3.57579297415476       -0.08177136796315
H            3.42192892848946       -3.69477313643556       -0.08567472797647
C            3.96963441972705       -1.19650120999014       -0.01033590764826
C            4.30927066789681        0.14467735648531       -0.00047206671012
N            3.64687709156413        1.28396257496841        0.01716001718921
C            2.31903554277594        1.47663906632048        0.02414817102553
N            1.99392602400540        2.78082972123614        0.05074370589063
H            1.04470644705125        3.11382330423908        0.04600962860650
H            2.75761716371098        3.43546637181120        0.05527399614155
H            5.38282895133989        0.33111543307738       -0.00932722046608
H            4.79972445492212       -1.89165969853293       -0.02360434124638
H           -0.43255219503880       -3.24309358259801        0.05868062561719
H           -2.75701575874192       -2.93550152197370        0.07451169107385
