28
 energy: -51.415800975213 gnorm: 0.000628042897 xtb: 6.6.1 (8d0f1dd)
N           -5.42090072856106       -1.48207266416031        0.01305332371738
C           -4.46190696044682       -0.84848806316494        0.00842706473577
C           -3.30527839491783       -0.04658358438951        0.00279309851073
C           -2.08398638703749       -0.67947514386106        0.00156656465531
C           -0.87488471871944        0.01651134616505       -0.00277999192542
C           -0.65573468190379        1.48598245489183       -0.00192230849622
C           -1.49084847228456        2.52514483782996        0.00055243249927
N           -2.87493360283296        2.45068532231667       -0.00713322923989
C           -3.58753269675304        1.39517125453380       -0.00675533842829
H           -4.65677905681947        1.60556076738177       -0.01604874896744
H           -1.13118579787544        3.54705778639771        0.00485206225589
C            0.79246041954898        1.21325378291360       -0.00098488253522
C            0.49843229171192       -0.22474509021502       -0.00187569425563
C            1.39459202849406       -1.31355478377273       -0.00234517289322
C            0.87388698661924       -2.61695297607870       -0.00379750619128
N            0.46732115190160       -3.69349559688080       -0.00585644424391
C            2.78990347035505       -1.15129948954324       -0.00133451380749
N            3.56789815200004       -2.26003712955563       -0.00500643109274
H            3.15898876274109       -3.17788265638089       -0.00374236553323
H            4.56462784334380       -2.14416523686232       -0.00008886635835
N            3.53455214832444       -0.02645989562978        0.00287501789434
C            3.23501065210667        1.23856559901320        0.00446694621500
N            4.30290185387970        2.06543898007709        0.00960246672462
H            5.22295969559214        1.66137184997621        0.01224984433110
H            4.19698323033371        3.06313410350520        0.01179576247331
C            1.94064236042612        1.90115201583717        0.00145601916504
H            1.93564117163759        2.98258717097930        0.00194586450524
H           -2.05706256416424       -1.76314472622374        0.00449271268529
