31
 energy: -53.790324837889 gnorm: 0.000760812230 xtb: 6.6.1 (8d0f1dd)
N            4.22625951105207        2.60462380034108       -0.04148730325745
C            3.45725988023534        1.74285703688922       -0.02652770321854
C            2.50498539839888        0.71790480792361       -0.01145144602062
C            1.14866207235018        1.15445346034062       -0.00711543011353
C            0.08177679954164        0.27471493570616       -0.00428099383359
C           -0.02885029282430       -1.19852936364834       -0.00213726732778
C            0.97457916799775       -2.16543493863896        0.01216277739987
N            0.61589782048212       -3.48028614003176       -0.01517912893568
H           -0.34660456720220       -3.71094708122270        0.15413029774794
H            1.30578340396563       -4.18560564477645        0.17586799751296
C            2.33559291317170       -1.84551569018236        0.01064598008820
C            3.00494281675217       -0.61585780203859       -0.00479106256479
N            4.36429040795094       -0.70967588701935        0.01890557901884
H            4.81109093040491       -1.60341259198612       -0.07509624996620
H            4.92699925754820        0.11939899965031       -0.06518871238158
H            2.99800875365766       -2.70530512744424        0.02139771592329
C           -1.43240309008148       -1.12862059679141        0.00020633357034
C           -1.32091209524830        0.39273375615766        0.00858288968722
N           -2.17845165909391        1.36461645684116        0.02592671885671
C           -3.50480539950306        1.11284610281902        0.04183875199899
N           -4.26560858475002        2.24040316601904        0.17350181690571
H           -3.82231220155976        3.12636382994342        0.00893363231817
H           -5.25026265375214        2.14761875174712       -0.00215269321329
N           -4.21451053841335       -0.00235299609896       -0.03220474576844
C           -3.84389433010423       -1.26750877159318       -0.07942594529265
C           -2.58202970397004       -1.87303644796457       -0.05276489783085
H           -2.54883674621904       -2.95656234202060       -0.09521201061773
H           -4.69945737153227       -1.93592419029919       -0.15310410100255
N            0.87321456929062        2.47643048170148       -0.01785813833410
H           -0.09262989280269        2.75402373243541        0.01797689198425
H            1.60680123435687        3.16231723924125        0.02290385856690
