24
 energy: -38.921098851445 gnorm: 0.000697132368 xtb: 6.6.1 (8d0f1dd)
N            3.98651708495393        1.50658914027915       -0.03801074831497
C            2.94027345093340        0.63617198743172       -0.01138061846373
N            3.28455853277693       -0.61588680736140       -0.00992596938958
C            2.54389299694960       -1.74269897282982       -0.01951669062857
C            1.19142048498089       -1.95375920804637       -0.00462443770359
C            0.24844637227157       -0.91669072138541        0.00134792683710
C            0.49556906148700        0.54155016096543       -0.01707673680866
C            1.62280226329312        1.26057206210258       -0.02348183712679
H            1.58973395973625        2.34286111994902       -0.03553506819196
C           -0.95631449275013        0.75773201366209       -0.01154100430830
C           -1.12966489583473       -0.71542864408945        0.01168240743147
C           -2.32593467732452       -1.45716150300822        0.02030535356203
N           -3.53892447404949       -1.01076387412437        0.02563235791409
C           -3.92401422889731        0.30432584227766        0.02067874748932
C           -3.27124362548096        1.49340423591813       -0.00976699197125
C           -1.84969227002969        1.75187510278422       -0.02833524061221
H           -1.53289525230156        2.78619641697476       -0.05080538342598
H           -3.89572990013257        2.37779540350129       -0.01611213839416
H           -5.01009960706593        0.36134775547231        0.04006699147021
H           -2.24618416648668       -2.54273492022326        0.01989046248958
H            0.83130398667052       -2.97393458487971        0.00027736101373
H            3.18351720874511       -2.62068712298816       -0.02967229531821
H            4.90842524914645        1.11689954958021        0.05716578981900
H            3.85255772890880        2.48577961713767        0.13756372043145
