28
 energy: -49.830878829745 gnorm: 0.000979180177 xtb: 6.6.1 (8d0f1dd)
N           -4.65835478163073       -0.58283079608162       -0.03556883194678
C           -3.31725146117503       -0.34588080589234       -0.00063479856047
N           -2.63890566923935       -1.48654300938387        0.00114540022728
C           -1.30941033642499       -1.64958503558336        0.01324531431984
N           -0.88974123808782       -2.93503686380618        0.02408100511365
H            0.09486257926191       -3.11939585948970       -0.05038198605463
H           -1.56360903176306       -3.66939351954702       -0.09557130368346
C           -0.36284840977237       -0.63568420610519        0.03947950170473
C           -0.52639994029252        0.83658545337921        0.03331110909634
C            0.84437181544379        1.03549796150109        0.01841423312760
N            1.70151959314029        2.03564342757592        0.00762522959631
C            2.99370240365631        1.75246652773181       -0.00217928752725
N            3.68272891354248        0.62197402478040       -0.00450314166325
C            3.30624890404299       -0.64394319656394       -0.00714778958229
N            4.33972578732393       -1.52985074833374       -0.07202898008361
H            5.26708375002422       -1.17015915008091        0.06442149303470
H            4.14723216977672       -2.49777067099884        0.11103287011904
N            2.08965476865212       -1.25009393093104        0.01539345302392
C            1.03626907785954       -0.49505602727534        0.02404920715207
H            3.63260956434889        2.63321646961696       -0.00510244198553
C           -1.70090017162797        1.61085659703704        0.01319770944903
N           -1.54966102161351        2.95404765539588        0.03212153087400
H           -0.61480882611175        3.32172033762434       -0.01795203548366
H           -2.33479319585807        3.56934303118100       -0.08129523773080
C           -2.95988456290580        1.02524032125590       -0.00605282875951
H           -3.80046661411447        1.70942796430071       -0.02411993728479
H           -4.95620976827338       -1.53785453431508        0.05497961410359
H           -5.32350015128242        0.15580384890797        0.09902161460395
