24
 energy: -43.720969160780 gnorm: 0.000174179841 xtb: 6.6.1 (8d0f1dd)
N            1.81472388424107        3.29175379720299        0.00090943355068
C            1.65979289287128        2.15281837102542        0.00090261219212
C            1.53283380736864        0.75225554439740        0.00066165460462
C            0.33272755845344        0.13842999576139        0.00044637702477
C           -0.03875146537670       -1.29003013436958        0.00029366238748
N            0.70127468351965       -2.41208672093103        0.00040554304804
C            1.98873566554728       -2.36475370060024        0.00063875086889
N            2.89834346060436       -1.35797366338586        0.00073168574270
C            2.77357571459350       -0.07221505566641        0.00072389725810
N            3.92109068122015        0.63159993719686        0.00078060457139
H            4.78783009107079        0.12145974339334        0.00081696081100
H            3.92500395450663        1.63754251009142        0.00079940126974
H            2.47789866833608       -3.33488926546357        0.00076030299745
C           -1.39025754016008       -0.97302534318201        0.00007184796718
C           -1.10143088224752        0.47477388842060        0.00021474294676
C           -1.88142595195943        1.56224664705047        0.00012660127666
N           -3.26007759669389        1.55652656698557       -0.00006650353849
C           -4.02635665835453        0.53404810838514       -0.00028169899883
C           -3.82096830216945       -0.90912039682065       -0.00041808969682
C           -2.65717721516972       -1.60263039796282       -0.00023922867928
H           -2.67334514463592       -2.68463439999580       -0.00033645902608
H           -4.74297309916979       -1.47562524219323       -0.00065927537600
H           -5.08065578281426        0.80804557240740       -0.00038455972854
H           -1.46003044778145        2.56032759175327        0.00023884402647
