28
 energy: -52.217507053042 gnorm: 0.000796785367 xtb: 6.6.1 (8d0f1dd)
N           -5.32226506913427       -0.21502145994777       -0.00079329575719
C           -4.23230851111102        0.15081862333282        0.00092665035061
C           -2.88791973384159        0.57589171298501        0.00003829089936
C           -2.72636126019080        1.97608010357051       -0.00000633885889
N           -1.70710925020253        2.79817303264971       -0.00010913957583
C           -0.41689143379469        2.45189504959036       -0.00014742587869
C            0.08916786562939        1.18587956754824       -0.00017850100247
C           -0.54567225875079       -0.15627946228938       -0.00014188517172
C           -1.91199245821919       -0.47099325703792       -0.00003074397798
N           -2.34216450321836       -1.73750725654487        0.00010975545804
H           -1.70385383150713       -2.51828976271105        0.00008140511036
H           -3.33303094388732       -1.92542398116560        0.00018582848990
C            0.71597638779604       -0.77474456570694       -0.00020972770875
C            1.38024418891273        0.56621072271108       -0.00031675399683
C            2.69379235261028        0.93334516878292       -0.00041810818116
C            3.01152826830939        2.31559300961125       -0.00032820923542
N            3.28182021524767        3.42906534414303       -0.00013911800516
C            3.78711173607249        0.02274698785949       -0.00042367060630
C            3.75702892697404       -1.35107567480627       -0.00035629498354
C            2.69337083154796       -2.26594621255826       -0.00024455390245
C            1.31877594461163       -2.03219163526354       -0.00018042837486
C            0.48488891088677       -3.17293394427559        0.00061246552890
N           -0.21948759080882       -4.08026386892475       -0.00092755385429
H            2.98200701451426       -3.30974661236935       -0.00018101204715
H            4.73302186915382       -1.82207918388363       -0.00037324951904
H            4.76556604942233        0.48568151332536       -0.00045873655704
H            0.26506357639788        3.29614485444659       -0.00028963830717
H           -3.67346151322008        2.51420325612841        0.00007789766487
