26
 energy: -43.172661125224 gnorm: 0.000773677726 xtb: 6.6.1 (8d0f1dd)
N            4.78088426842066        1.36550443001533       -0.00154779130173
C            3.82150487311976        0.72846882845136       -0.00087147304939
C            2.62168246273578       -0.00528846487233       -0.00041371044002
C            1.43222050057022        0.77097318083179       -0.00069131869413
N            1.53245001656941        2.11508537917934       -0.00029037101242
H            2.43599639263075        2.55857158004624       -0.00258714119599
H            0.70313316482393        2.67985198091097       -0.00368991021119
C            0.16511900823378        0.18013580883399       -0.00058568972186
C           -0.23453827930658       -1.24392114686949       -0.00123700307537
C            0.47606201865363       -2.39797740412914       -0.00116173209582
C            1.88621939852733       -2.45211448524400       -0.00033979430125
C            2.78000780516887       -1.40974570512998        0.00002022026487
H            3.82451793254731       -1.70636573677138        0.00058325820997
H            2.31824907651231       -3.44379368636513       -0.00007441796896
H           -0.05881523131421       -3.33912395401710       -0.00176212690321
C           -1.61958370094802       -0.84414138042487       -0.00159772073794
C           -1.17814359788414        0.58934537107438       -0.00056419585868
C           -1.96793832621026        1.72368519018429        0.00102560672324
C           -3.35591546672389        1.69582707336328        0.00100710449336
N           -4.22940836494189        0.68667954264103       -0.00109360363698
C           -4.04546823120198       -0.59819886904418       -0.00277986176442
C           -2.85411735401059       -1.38730245281730       -0.00258330147347
H           -2.97323177556951       -2.46341229259677       -0.00340940447054
H           -4.97761410849464       -1.15811822151318       -0.00444132910812
H           -3.86000629795704        2.65834986752842        0.00270879533264
H           -1.50070679955100        2.70244228503447        0.00261151759743
