22
 energy: -39.479292803196 gnorm: 0.000812304470 xtb: 6.6.1 (8d0f1dd)
N            3.76929697841500        1.58269219439535        0.15919143139091
C            2.80319712237068        0.65427819519428       -0.01465919781453
N            1.56034222335784        1.20555166586493       -0.11858336951603
C            0.50555816819554        0.47743905325683       -0.08325080482701
C            0.26538617980458       -1.01346267962855       -0.01038158357396
C            1.21133740003920       -2.01546370968347       -0.09345171065631
C            2.57264022093666       -1.73551695757151       -0.15116656247672
N            3.23324864382586       -0.58862131695084       -0.08768353487958
H            3.24516388854534       -2.58172740266776       -0.26218270661620
H            0.89452628332890       -3.04798190785654       -0.16390474592025
C           -1.11575594133354       -0.79622578427442       -0.07341090920843
C           -0.90667284725423        0.69493261868563       -0.14151303954837
C           -1.82342855835272        1.66977919901649        0.10024848716962
N           -3.14232502644719        1.49083544991928       -0.08501305914735
C           -3.75551289794849        0.35623306675258       -0.21002749415735
N           -3.48165281095175       -0.87105419893809        0.24215666708632
C           -2.29605284943481       -1.41182696826425        0.33229435610359
H           -2.26604272946686       -2.41084290533313        0.75797357734966
H           -4.74979730067953        0.43062297139616       -0.64916800532892
H           -1.52284127036962        2.68331754084267        0.33674460542254
H            3.52351378641141        2.55369568211164        0.09538523491708
H            4.72966115860779        1.29110618263252        0.14132372273154
