27
 energy: -46.895881668119 gnorm: 0.000490923204 xtb: 6.6.1 (8d0f1dd)
N            4.31221002544721        1.91070730791559       -0.00197917153200
C            3.42005393198406        1.17961539654296        0.00063277496967
C            2.31888793944867        0.31020541885761       -0.00044105459248
C            1.05361237327322        0.95116144628738       -0.00055008352810
C           -0.14942301120750        0.24256281075417       -0.00047609412669
C           -0.46106311045334       -1.19650303742795       -0.00030923811342
C            0.37707889774485       -2.28287593704923       -0.00020885194919
C            1.76136658208187       -2.20418752710140       -0.00023913732942
C            2.61776367812113       -1.08740073560214       -0.00033037442340
N            3.94143186550981       -1.38454215443237       -0.00020754127208
H            4.63220651204070       -0.65338547598809       -0.00018170337762
H            4.24687931839654       -2.34083726331966       -0.00004040230525
H            2.28519212852329       -3.15272532436022       -0.00007354539333
H           -0.06860460509680       -3.26843619295723       -0.00006546458171
C           -1.85286904711736       -0.91212241356349       -0.00031111316002
N           -2.96974853640827       -1.56028256632824       -0.00021563280405
C           -4.12994117263992       -0.88374563710513       -0.00027668431870
C           -4.39178829868109        0.48119536587878       -0.00043472712146
C           -3.54279154056081        1.60011460073742       -0.00056952281709
N           -2.21725014498521        1.68111931548003       -0.00059219847207
C           -1.50590954707106        0.58335237371568       -0.00048135709636
H           -4.02505998365971        2.57183289729751       -0.00067417367725
H           -5.44700147626249        0.73196539508794       -0.00045880991194
H           -4.99043481901761       -1.54401826775531       -0.00018800448946
N            0.97178557996538        2.29251812564237       -0.00056861616882
H            1.79489487022891        2.87085961489863       -0.00062614626450
H            0.05414560529551        2.70812770239440       -0.00063281744327
