33
 energy: -62.845133638064 gnorm: 0.000846598074 xtb: 6.6.1 (8d0f1dd)
N           -5.81012563547880       -2.01448872872716       -0.00131224116500
C           -4.73406643571506       -1.61127334735642        0.00343972610386
C           -3.40970707454054       -1.11448934605053        0.00104138612845
C           -2.44900378394036       -2.14775254919223        0.00018590867718
N           -1.13178123689501       -2.12729542757055       -0.00031044606138
C           -0.45958866276678       -1.00757974197025        0.00010282615254
C           -0.83528661682832        0.47434002677407        0.00097623601480
C           -2.08655933853013        1.04765008360734        0.00148466735650
C           -2.18133504390372        2.45112815803541        0.00114619787971
N           -2.22383828824316        3.60159563621441        0.00302699642369
C           -3.30291840333738        0.29687968941273        0.00165711134551
N           -4.45812972559217        1.01449039021842        0.00279258142508
H           -4.43428507959741        2.01885545934638        0.00250517651089
H           -5.34625330736136        0.54396902897189        0.00234613918985
C            0.53738332759141        0.79045441115118        0.00075482216265
C            0.88676110117807       -0.65017530445234       -0.00001221674336
C            2.10482000661291       -1.33687984941736        0.00014178469236
N            2.05764068998121       -2.68120788605753        0.00003947015566
H            1.15420373636557       -3.12520104347966       -0.00001246551726
H            2.89965124373425       -3.23105610055774        0.00041129303729
C            3.33819366261156       -0.65266481798852        0.00026087638834
C            4.48775018105903       -1.45334734806631        0.00065417268017
N            5.42360161306958       -2.12725681225975        0.00120203543045
C            3.55103102339285        0.77039281703335       -0.00046239113262
N            2.73884786944079        1.80870700164294        0.00063130694837
C            1.40326217177865        1.88620374732721        0.00170777550209
N            0.94497690995021        3.15145460435346        0.00393160418957
H            1.62364998532017        3.89259921642122        0.00411566527262
H           -0.03702127773869        3.37022693864656        0.00401879149869
N            4.84801029224630        1.15277496073511       -0.00242230088599
H            5.04631453250574        2.13746835199055       -0.00242704047111
H            5.59573876656861        0.48069938675852       -0.00269185780101
H           -2.85989136793810       -3.15269945419446        0.00001437501143
