23
 energy: -39.199575292064 gnorm: 0.000430128262 xtb: 6.6.1 (8d0f1dd)
N           -3.96307051560165       -1.51760029375982       -0.00444240719515
C           -2.91792149665786       -0.64735904456155       -0.03105157316425
N           -3.27964158676470        0.61117922926513       -0.03824690612619
C           -2.56245093091335        1.73510934591331       -0.09237329643792
C           -1.20143437352726        1.96665762942254       -0.10683031717346
C           -0.25451952568553        0.95158925887211       -0.06945991606362
C           -0.47532447566741       -0.52024659638603       -0.06466626619553
C            0.95952734769603       -0.72053493527287       -0.07947538263039
C            1.13239979614108        0.76740466121600       -0.10413448549157
C            2.30606052026548        1.43051782324215        0.25835324602139
N            3.49744958473521        0.90907675417546        0.21503702844674
C            3.80698852817412       -0.34033195538827       -0.18099536739637
N            3.21659288590511       -1.48070732393169       -0.06232476355015
C            1.88725561216397       -1.67430566056570        0.14554473756882
H            1.61717123485617       -2.69939329529899        0.37245426444728
H            4.82149580518591       -0.40343930127278       -0.57386005932912
H            2.25485745217723        2.45261080973584        0.62514682942774
C           -1.60567663340948       -1.24758679842468       -0.07825086132654
H           -1.55658383686626       -2.32878459915343       -0.11351995218876
H           -0.85925085278582        2.99198101558173       -0.15621856604373
H           -3.20772294248873        2.60909376222864       -0.11848493561248
H           -4.88269423807172       -1.13002184535728        0.11437809820077
H           -3.81982324666054       -2.49761164417991        0.15737914311236
