34
 energy: -62.560451732517 gnorm: 0.000590567743 xtb: 6.6.1 (8d0f1dd)
N           -6.06028738089310       -1.02693364396131       -0.00961903160710
C           -4.93577039441741       -0.78990101605839        0.00343736337992
C           -3.55035903802632       -0.51050986455576        0.00948509000870
C           -3.25459349180669        0.85671808470401        0.01037993599321
C           -2.01225798193918        1.50342148841949        0.00802978931083
C           -2.01107640018144        2.91147461325390        0.01056554432138
N           -1.96022036318805        4.06088986485459        0.01177880434741
C           -0.80436601087933        0.81999105809624        0.00216166774273
C           -0.60264184151536       -0.69580601805617       -0.00010559893553
N           -1.37424170833422       -1.73672211939560       -0.00048331259222
C           -2.71174937084700       -1.66264839750519        0.00785864603012
N           -3.30871914710069       -2.88491265872079        0.04155890447067
H           -2.72226183421575       -3.69436122925856       -0.04903327397799
H           -4.30458029716680       -2.97657349376377       -0.05214097816755
C            0.78641167217133       -0.48885222908108       -0.00528065389791
C            0.58334660630608        0.97786433606765       -0.00409589835757
C            1.54961866311007        2.00007181284899       -0.00995125819791
N            1.15399994014269        3.29025963489520       -0.01637930329594
H            1.83507920890189        4.02819533067577       -0.01634299795659
H            0.17887658177414        3.53969255852993       -0.01002412985644
C            2.92026532232155        1.73038951198033       -0.01115532095644
C            3.65653415718609        0.53797892102289       -0.00541201893041
N            5.00513284565650        0.70415874928098       -0.00293873906415
H            5.61542598349499       -0.09471198286867        0.00037582220311
H            5.40767768830512        1.62299589237235       -0.00659094419300
C            3.22678825202609       -0.82011003498817       -0.00187374530886
C            4.23089849753508       -1.79731253538384        0.00414597889310
N            5.04104737290217       -2.61879466103768        0.01005124761403
C            1.89757883054968       -1.31883910160097       -0.00319616586395
N            1.67884200362215       -2.65006861054903       -0.00439551210886
H            0.72524898812340       -2.96943198813856        0.00794282684684
H            2.44221207714811       -3.30345846278464        0.01103307457404
H            3.54239840188767        2.61983926591187       -0.01531433165355
H           -4.12193236815359        1.50800947109229        0.01178227888580
