25
 energy: -47.450959387269 gnorm: 0.000633763048 xtb: 6.6.1 (8d0f1dd)
N           -0.92463767789237       -3.76903408501859       -0.16678744367654
C           -1.03025345969188       -2.62461373130802       -0.12015689164514
C           -1.18812218705316       -1.23004498701240       -0.05915027008202
C           -0.06409760803985       -0.40518987079796       -0.04576656897951
C           -0.01456400227143        1.09781382066415       -0.04648337504079
N           -0.90209173553523        2.02058616835632       -0.06902478239186
C           -2.23545002691707        1.71687733189103       -0.02929906699597
N           -3.00083279306930        2.82538412976812       -0.01371302209274
H           -4.00004875842030        2.74190701639868        0.02166623500174
H           -2.55077813088874        3.72262462266420       -0.02820303297117
N           -2.89179658027506        0.58373168998410       -0.01126171520300
C           -2.50111966834329       -0.69282669918172       -0.02013805893977
N           -3.54101555763738       -1.55866848968258        0.01662263574007
H           -4.47266082068982       -1.18513344092081        0.00697576701097
H           -3.38857200086399       -2.55088485338810       -0.02798123517137
C            1.42069532002562        1.04275934256423       -0.07858199436439
C            1.32529315022211       -0.46339533018818       -0.11356836064118
C            2.36035618763546       -1.32787597612093        0.26470009720557
N            3.61780009826573       -1.01076223374248        0.23733628627050
C            4.13102665875600        0.15401590632825       -0.20472490677391
N            3.76841198658521        1.38025276127290       -0.05475158211666
C            2.50457129957050        1.81235301861662        0.17441309995679
H            2.41634940621084        2.85994757433534        0.43248928715385
H            5.10835423057935        0.02359900196624       -0.66869505146769
H            2.11972750733697       -2.31852752234787        0.64023123111561
