34
 energy: -63.352766126354 gnorm: 0.000834512724 xtb: 6.6.1 (8d0f1dd)
N           -5.89700882793138       -0.51786440351420       -0.02081548649315
C           -4.75611713828375       -0.38789461796424       -0.01204600021135
C           -3.34883515667480       -0.21932188402119       -0.00335590215449
C           -2.96930930341928        1.12522375748536        0.01378353469799
C           -1.69791683002245        1.70658435383352        0.01721438124371
C           -1.71181091937221        3.11682374469610        0.03812153004598
N           -1.74669853752585        4.26627596123958        0.05491229792373
C           -0.49718968532977        1.01028407496171        0.00486264952592
C           -0.26808091947339       -0.48949546564851        0.00547494315659
C           -1.17399618842606       -1.52910860251922        0.00042298392449
C           -0.70017486212802       -2.85627182738361        0.00609553358612
N           -0.35417937791265       -3.95444517183263        0.01316362031439
C           -2.60152672167908       -1.41782657148456       -0.01128411379534
N           -3.30722645466960       -2.58205327778483       -0.03204006534623
H           -4.31207330629298       -2.56084855885332       -0.03242750466225
H           -2.84015837278751       -3.47111002321215       -0.03067257500929
C            1.12928214476356       -0.25771660124079        0.00564870789863
C            0.88767667808738        1.21563844236630        0.00081557651836
C            1.77688547869734        2.30454697941116       -0.01329972721744
N            1.31297957964289        3.56665460628870       -0.02740692023003
H            1.96404311643513        4.33259218581427       -0.03186511829923
H            0.32955027198101        3.78032955701723       -0.01380188879640
C            3.17515138680524        2.13864022838986       -0.01848756672817
C            3.92825341902922        0.98589944157082       -0.01257022283632
C            3.59715667497664       -0.36962223661715       -0.00064317088133
C            4.70510427668798       -1.23837202048114        0.00075800877674
N            5.60695183513449       -1.95376417935626        0.00009728260039
C            2.30873809922357       -0.99942904973327        0.00911361650261
N            2.30414197894292       -2.34354261257606        0.02246003849292
H            3.18213145842136       -2.83744938081310        0.02365158283528
H            1.45385126726698       -2.87954284952496        0.02932311864264
H            5.00027544147946        1.15679262349131       -0.01861504868311
H            3.73907058424684        3.06305463123218       -0.02899055074977
H           -3.79765755989374        1.82480396486684        0.02326262180612
