24
 energy: -43.715530520054 gnorm: 0.000842951415 xtb: 6.6.1 (8d0f1dd)
N           -5.20699467047681       -0.55810863112793        0.00053156863646
C           -4.06015449843374       -0.47230350520833       -0.00075558143091
C           -2.65677125610459       -0.34180560399848        0.00023258299506
C           -1.95458982210465       -1.60596038867543        0.00022025806830
N           -0.69759261796363       -1.88749699725398        0.00047443581002
C            0.21834404400508       -0.89958711148859        0.00073920173955
C            0.08501970240229        0.57607633730343        0.00090904024979
N           -0.87264918620915        1.41718268920037        0.00085934911658
C           -2.18090119357816        0.97341779022500        0.00051741868196
N           -3.04176267496760        2.00672710864583        0.00043279225016
H           -2.65932314739995        2.93627245141748        0.00065959212583
H           -4.03682619819871        1.85926722602155        0.00020946428176
C            1.55681871044689        0.67488561001982        0.00114033828930
C            1.60092660283965       -0.80106075360759        0.00096958720213
C            2.74866073739079       -1.63147239769067        0.00093946419680
C            4.01109476903966       -1.14224479535961        0.00115249314811
C            4.45436338633890        0.24752341654367        0.00155372200761
N            3.86883700844561        1.38264131501457        0.00161538883453
C            2.50835251078217        1.61532512101354        0.00132955560275
H            2.25830365209137        2.66852361243659        0.00134599994897
H            5.53961988026322        0.34173787685139        0.00188973194822
H            4.82596836702529       -1.85422952610852        0.00109622031308
H            2.58503527869607       -2.70121990253243        0.00071317287076
H           -2.60792136023000       -2.47288752464169       -0.00008920698683
