31
 energy: -59.395608483773 gnorm: 0.000558140021 xtb: 6.6.1 (8d0f1dd)
N           -3.18899447885591       -3.89190539584281        0.00055377251507
C           -2.68714338256084       -2.85619354482788       -0.00233598443723
C           -2.07687276256884       -1.58694367550586       -0.00022594561609
C           -0.65921302408936       -1.62688086562322       -0.00000605914598
C            0.12711482306577       -0.52744280020361        0.00052347696956
C           -0.20234924717248        0.90998814581594        0.00094412099809
C           -1.42942460164667        1.59714615547425        0.00110290035283
N           -1.36331607427688        2.93771178036676        0.00157705421403
H           -0.45181829790229        3.36731765548710        0.00175166899714
H           -2.19467651479079        3.50487092925153        0.00171969269065
C           -2.66897122670007        0.92950170389263        0.00085783974279
C           -3.78776192592452        1.78084939207389        0.00179904789707
N           -4.68340570988591        2.50591281596286        0.00045674652864
C           -2.95720958737793       -0.48020500781929        0.00019583879225
N           -4.27578332797112       -0.77929847589908       -0.00012223834626
H           -4.96823530597064       -0.04925931940614        0.00013440535191
H           -4.57368663437873       -1.74091001952908       -0.00059123073073
C            1.14202398057017        1.26464901417980        0.00119775814299
N            1.83824279729955        2.38765185124662        0.00161862011764
C            3.14917732527506        2.36363975693002        0.00181900330774
N            4.05445480634369        1.38649589974366        0.00175238725335
C            3.95771561179169        0.08261967119665        0.00137063097968
N            5.13980667430790       -0.56989299655119        0.00143796439695
H            5.18921402185202       -1.57409795412100        0.00122525833947
H            5.98097384659346       -0.01973661869511        0.00182201980781
C            2.75867683749552       -0.76060453845286        0.00085359270571
C            2.92329687985607       -2.16080878555437        0.00006343384920
N            3.09319895537696       -3.29661695331484        0.00090357676336
C            1.52787756297000       -0.19412289656041        0.00080275738947
H            3.60740702184880        3.34894747238588        0.00215030564396
H           -0.20360724937368       -2.60907880300087       -0.00045053217105
