29
 energy: -51.141945797177 gnorm: 0.000633003776 xtb: 6.6.1 (8d0f1dd)
N           -3.76998574799947       -3.21431926680671        0.00878707201055
C           -3.02982017446125       -2.33364825233432        0.00610430806701
C           -2.09595144402421       -1.27919814443067        0.00357065251486
C           -0.71672041341023       -1.67223966807875       -0.00559726159143
N           -0.43286762824872       -2.99098100070138       -0.01267990513896
H           -1.17449630377550       -3.67096510775952       -0.02238582705101
H            0.52166358387116       -3.29944348336039       -0.03110256792901
C            0.30407402549000       -0.73820125034377       -0.00321373514970
C            0.30407717418003        0.73822880514390       -0.00264872283960
C           -0.71671096715910        1.67227451200093       -0.00426857700195
N           -0.43285501858480        2.99101964653145       -0.01028970029283
H           -1.17448454737073        3.67101272730231       -0.01939454038939
H            0.52167117315380        3.29949922296600       -0.02844064775914
C           -2.09594248331016        1.27923418659268        0.00464098029757
C           -3.02977691783493        2.33371072179865        0.00874899747917
N           -3.76998757284546        3.21431597011007        0.01054185043087
C           -2.64420423386259        0.00001713404676        0.00958320529177
H           -3.73127309048763        0.00001668161251        0.01737246717150
C            1.72359912445028        0.75190027812641       -0.00301105412769
C            1.72359655468184       -0.75187801458807       -0.00357033980621
C            2.78289815663033       -1.61404161540204        0.00230000997929
C            4.12525223196284       -1.19538698063920        0.00583139077390
N            4.67415246233111        0.00000327271490        0.00711114553593
C            4.12525609730012        1.19539564950351        0.00658584147605
C            2.78290312471580        1.61405628731566        0.00342659680537
H            2.61352187276339        2.68497141861943        0.00717790776667
H            4.86927183291242        1.98803635337863        0.01013042857738
H            4.86926584264510       -1.98803173539572        0.00893109276422
H            2.61351457998648       -2.68495873532330        0.00529392583479
