28
 energy: -52.215529305343 gnorm: 0.000557633073 xtb: 6.6.1 (8d0f1dd)
N           -4.22430820528411       -3.00123010428744       -0.00051858977365
C           -3.37436937612956       -2.22653347592364       -0.00051133851428
C           -2.33462062247673       -1.27337662818082       -0.00070393499400
C           -1.04113598223165       -1.82214931236824       -0.00136255231986
C            0.11160281086436       -1.09574768386012       -0.00160548108505
C            0.33898922504521        0.37142202689417       -0.00128245934742
C           -0.54843472693388        1.41313099457566       -0.00067170220822
C           -1.94098319871760        1.27612746305751       -0.00020557530012
C           -2.65146950250590        2.49515640265665       -0.00027448325525
N           -3.23768494371498        3.48429114015751        0.00161828997540
C           -2.74922416131625        0.09205571091819       -0.00020082525081
N           -4.07898837666536        0.29975804862612        0.00031375873983
H           -4.44875847943861        1.23715979151472        0.00069550943781
H           -4.71579594022679       -0.48124071654717        0.00034452285915
H           -0.16015866474885        2.42524358026499       -0.00058988979169
C            1.73936974507483        0.17623933875146       -0.00186913092260
C            1.51733073685114       -1.31812205460400       -0.00221138635446
N            2.30005602718815       -2.34683941289019       -0.00279354150382
C            3.62609635575111       -2.23266252785107       -0.00326923054862
C            4.45947308055250       -1.10939647834264       -0.00328406867787
C            4.18359715071537        0.25214090954278       -0.00279235721190
C            2.92260739438230        0.88186231774636       -0.00211602358294
C            2.87312088535451        2.29729430621829       -0.00156847571164
N            2.81139634601864        3.44213316909675       -0.00154970954191
H            5.03818102652080        0.91735834243670       -0.00292809113617
H            5.51611361900118       -1.35097641452359       -0.00375540176861
H            4.12238380635463       -3.19666027770110       -0.00372019282155
H           -0.97203991758452       -2.90287716097790       -0.00170704788967
