26
 energy: -47.972998434003 gnorm: 0.000379774231 xtb: 6.6.1 (8d0f1dd)
N           -4.39271483901411       -2.13618535453809       -0.00051417403425
C           -3.52675014262469       -1.37823054680532        0.00020140007132
C           -2.48917059821248       -0.42871053025428        0.00032810135443
C           -1.19454008001065       -0.92799619579050        0.00022026749027
C           -0.06986608935919       -0.12831050043109        0.00046976590049
C            0.03311922789189        1.35417252036684        0.00093572388494
C           -0.93829675744728        2.30893528956536        0.00122921634205
N           -2.25666553928396        2.10966616978417        0.00109866878193
C           -2.91881967449321        0.96843749950055        0.00069418953480
N           -4.25065205405918        1.15264018005791        0.00061311314020
H           -4.89559514643847        0.37951429243790        0.00034925868633
H           -4.58813179028364        2.10078288709983        0.00087530168428
H           -0.65996779298622        3.35746039873290        0.00166890682020
C            1.45999646827915        1.24847570659224        0.00097238575147
N            2.45110984663650        2.06837339014229        0.00123441523762
C            3.72415867706074        1.64684962427868        0.00112585851278
C            4.27253588860010        0.37189696695524        0.00070886512061
C            3.68669405333359       -0.89889051478624        0.00021875654301
C            2.32556326748273       -1.21983561041878        0.00006473017503
C            1.94726142178219       -2.58416413150354       -0.00093971192160
N            1.61826415206960       -3.68274368924673       -0.00037307090827
C            1.32715228086487       -0.25613703706941        0.00046416013233
H            4.37040919843591       -1.73882031686277       -0.00012849959960
H            5.35640156745832        0.35898106547174        0.00067930832700
H            4.42496666835997        2.47438641413234        0.00138379289339
H           -1.07062811354247       -2.00478194151131       -0.00009147552079
