29
 energy: -45.535609750076 gnorm: 0.000734126228 xtb: 6.6.1 (8d0f1dd)
N            4.46966022266179        1.70995800209205       -0.14279559449902
C            3.44927346990793        0.77918113886097       -0.03726333997490
C            2.12814651228460        1.32437247496676       -0.03142668760298
C            1.00067337604175        0.59166805119643       -0.00525336998692
C            0.75134833568459       -0.88057046812357        0.02001657486054
C            1.67410841716469       -1.91714221634653        0.04008975269584
C            3.03969360060260       -1.73919679933554        0.02531227966809
C            3.80167981042158       -0.55683164650975       -0.00783420956387
H            4.87400748769548       -0.72922709788077       -0.01384995252005
H            3.63327983745300       -2.64567794628516        0.04761935206906
H            1.30917333615682       -2.93805116112748        0.07687182566581
C           -0.62854375808274       -0.65764319127364        0.02967608220852
C           -0.42872743079660        0.80751545270538        0.00920661422354
C           -1.30725913437101        1.83707343230821        0.00048615201185
N           -2.64781765695910        1.76725085342640        0.01670795202429
C           -3.37522448872753        0.66337369584003        0.03805631009800
N           -4.71026125665139        0.95087784197489        0.10999966496184
H           -5.39977179975018        0.24772894332060       -0.08481866418509
H           -4.96148030632210        1.91762285639250       -0.00373988546199
C           -3.06990196690667       -0.72437987808326        0.02075849380928
C           -1.84018858489737       -1.36656330886613        0.02445696663387
N           -1.79830681256170       -2.73099383410120        0.06531773094696
H           -0.92321345914498       -3.17935300306439       -0.13881417029860
H           -2.63785504640226       -3.24989337310597       -0.12648612186328
H           -3.93889082587222       -1.37383710459436        0.02065523952610
H           -0.93929923918156        2.85946355899654       -0.02397091564904
H            2.05105575685702        2.40572049781950       -0.05203479713088
H            5.39802598753289        1.39891834300272        0.09207686647518
H            4.25627116166266        2.65344882039483        0.13468473275780
