30
 energy: -54.878542342844 gnorm: 0.000791421321 xtb: 6.6.1 (8d0f1dd)
N            4.90351783674887        2.46441379968400        0.01755410869672
C            3.99911741693853        1.74992207030016        0.01407323369660
C            2.90088776622373        0.87920341714858        0.00979871262325
C            1.62261201552719        1.49017344233016        0.01797298637365
C            0.46296130109616        0.79595661468170        0.01432235493515
C            0.17267079948585       -0.65418199661685        0.00526083013241
C            1.10291260588477       -1.72514771620999       -0.00433998016870
N            0.66779527018228       -2.99446841958773       -0.01064980961463
H            1.35787573132930       -3.72604011327591       -0.01630387632221
H           -0.31151766276929       -3.23177234692664       -0.00571644697599
N            2.41827175865896       -1.60059942884377       -0.00913640640249
C            3.19346480804021       -0.51149482675803       -0.00456450601118
N            4.50269508776366       -0.85097311697523       -0.01567294944485
H            5.22393251810038       -0.15040629069682       -0.01254997475909
H            4.73583486445626       -1.82784181526253       -0.02481886562514
C           -1.20055275980004       -0.41405082535698        0.01021605880591
C           -0.95619725273750        1.06213938882991        0.01766720764807
C           -1.79629355868303        2.11143526324695        0.01828954028309
C           -3.22892158881679        1.96955588454170        0.01015960211925
N           -3.94237128662952        3.12515818436098        0.02565692208767
H           -4.94250872065051        3.05570730948666       -0.04456823853498
H           -3.49840351435812        4.01698375551009       -0.09498506310613
N           -3.98082636169706        0.89136165764030        0.01205680767582
C           -3.66807333447051       -0.39512274531866        0.02056535634770
C           -2.44274384126188       -1.06525411258685        0.01407712029153
C           -2.47174675546596       -2.47017059924986        0.01254131815831
N           -2.45500273629924       -3.62109975104756        0.00817019502802
H           -4.55359481011873       -1.02594340705122        0.02731238600468
H           -1.40020240349332        3.11921468984769        0.02294055647885
H            1.60052157381542        2.57278250595558        0.02708035627875
