25
 energy: -38.647818253542 gnorm: 0.000763226173 xtb: 6.6.1 (8d0f1dd)
N            1.63120161288327        2.62059743684515       -0.00490841506035
C            1.77920956070039        1.27232077495514       -0.00550376836011
C            0.62348169574276        0.47471742663072        0.00855599524548
C            0.49593730397020       -0.99994049654937       -0.00071295217892
C           -0.93431657075750       -0.86601798158951       -0.01745327730094
N           -1.92873680136843       -1.67103497567476       -0.03878559949430
C           -3.20426165646814       -1.22600515748791       -0.04980881990117
C           -3.71937346874180        0.05233176693552       -0.00614723181508
C           -3.10056100645897        1.31595603574325        0.04679586522276
C           -1.74764829882611        1.61301006900275        0.04939574593406
C           -0.76437903906194        0.64546400520232        0.00002078812534
H           -1.47088981655407        2.66192851787215        0.10239235202772
H           -3.77816965407819        2.15972447173265        0.08918861787481
H           -4.80359245936675        0.09144955509346       -0.00939916609837
H           -3.91683650806371       -2.04255340926209       -0.09025794524001
C            1.41297045108122       -2.00278924592901        0.00247918099601
C            2.80356203292581       -1.79548814844608        0.02094532995676
C            3.48945184739832       -0.59554513732068        0.02334094277951
C            3.07151624145694        0.73639628218729        0.00448244892620
H            3.86825931850092        1.47168692444748       -0.00177404938272
H            4.56941169187777       -0.70260732400606        0.03501428292273
H            3.41495656686321       -2.68810795397953        0.03202352584910
H            1.05218221011936       -3.02302075625887       -0.00664223299669
H            0.71621025346783        3.01511975852328       -0.12187776307235
H            2.43054374595755        3.21797265053275       -0.12099735425955
