28
 energy: -47.419911532076 gnorm: 0.000739725469 xtb: 6.6.1 (8d0f1dd)
N            4.46383082844458        2.87042022049501       -0.04061416771286
C            3.61999477024949        2.09012761773974       -0.02660614678501
C            2.57863032770660        1.13973831298264       -0.01209822207051
C            1.27799886453506        1.65453900796959       -0.00678906137180
C            0.14344617171391        0.88383947513055        0.00595424335652
C           -0.01404400544510       -0.60523091631513        0.01413595304543
C            0.87108880790274       -1.60768950070617        0.01601163450785
C            2.30245313826726       -1.40045389307578        0.00759729476966
C            3.06836166752557       -2.58457757275837        0.01101756356439
N            3.67106615151876       -3.56303554293285        0.01284184946643
C            3.00276009745447       -0.21566834783167       -0.00466848464155
H            4.08366915538436       -0.32894193335702       -0.01001831506977
H            0.53682596774170       -2.63803440957458        0.02379468873195
C           -1.45538237756855       -0.41954319246870        0.01798616266839
C           -1.25631668838747        1.04498427241499        0.01184627392293
C           -2.19663170450056        2.06203766505962        0.01500105260204
C           -3.56017916110604        1.84782220518138        0.01904475231944
C           -4.28381113328161        0.64527123820652        0.01523536038193
C           -3.89620259800266       -0.68868454518335        0.01427502272510
N           -4.88240771615517       -1.63681028063574        0.06185260208557
H           -5.83528705789399       -1.36026469924747       -0.09860807950572
H           -4.64903871189129       -2.59491776057161       -0.13132392651893
C           -2.55760173791326       -1.19297533574765        0.01827236830036
H           -2.44542859617561       -2.27079522967863        0.02286557142845
H           -5.36035868780189        0.78326395699645        0.01479704777072
H           -4.17804952874921        2.73667969890668        0.02050620115633
H           -1.84060924121308        3.08396129492338        0.01370026249324
H            1.17508795654099        2.73364752267816       -0.01342144562066
