23
 energy: -44.785050444457 gnorm: 0.000642047262 xtb: 6.6.1 (8d0f1dd)
N           -4.87660691118070       -1.57307342685420       -0.48299626068374
C           -3.95024871841787       -0.91571045868214       -0.31813565576576
C           -2.81884004787937       -0.09463775758115       -0.13183668723903
C           -1.55084872125871       -0.68527851554868       -0.30776417953156
C           -0.37770314043137       -0.02740002716904       -0.05521390317270
C           -0.10623536730182        1.43380748729959        0.16709696687371
C           -1.03306529873673        2.45027456173740        0.08963781376855
N           -2.31467784252091        2.27724105232701        0.31596430155887
C           -3.05806932755844        1.20919615843940        0.36271806775486
H           -4.04390555449162        1.38635548414596        0.78642831338766
H           -0.72511597784004        3.46645622967316       -0.12735383344516
C            1.27634311521832        1.22228316025231       -0.00161273903592
N            2.36225922633812        1.92244393077496       -0.05282586732003
C            3.54156985752426        1.34872973664115       -0.27698035011823
N            3.94666054494207        0.12620892064919       -0.02367137650523
C            3.30401794345406       -0.98395303488400        0.22098382533125
C            1.92404258208515       -1.27838773210816        0.04415912361550
C            1.47796129937634       -2.60882460084116        0.22105722361910
N            1.10538544935333       -3.68506360338395        0.35182408997111
C            1.01049666439729       -0.26811810169049       -0.16828519532367
H            3.93397193489239       -1.79016322632708        0.58515181293416
H            4.32255817661724        2.02923262084143       -0.59725027109783
H           -1.51614398657986       -1.72771179971189       -0.60111045967610
