33
 energy: -52.409829881969 gnorm: 0.000416036910 xtb: 6.6.1 (8d0f1dd)
N           -5.08881208034989        0.00186619493038        0.04417478502226
C           -3.70788966238372        0.00130432558637       -0.00452449418527
C           -3.12562523904084        1.27424109695464        0.03451708877414
C           -1.77694884860367        1.65015115795674        0.04521544479892
N           -1.48639231600265        2.99408008629213        0.03496741310164
H           -0.54927158609055        3.24900251754058        0.29513095297619
H           -2.21115170144234        3.62791729361918        0.32873766160733
C           -0.73156829617528        0.74125442691602        0.00596027398699
C           -0.73186226039790       -0.74386717302763       -0.00806592586435
C           -1.77879434998193       -1.65128509244209       -0.00964106488411
N           -1.49311114699415       -2.99331826378001       -0.06982516268928
H           -2.21959705973934       -3.64119742221414        0.18424844241696
H           -0.55322350133664       -3.26568713125159        0.15811278289083
C           -3.12764455779271       -1.27209183076143       -0.01481077024204
H           -3.83429329108228       -2.09536889708293       -0.02771355123468
C            0.67944688775334       -0.75820238543737       -0.00120786741886
C            0.67904001734306        0.75556449611761        0.00723437836531
C            1.73338896309086        1.62144626267159       -0.01788655211612
C            3.08276755488927        1.20900521758685       -0.02806530605649
N            4.04027876353149        2.21844343540116        0.01943909387631
H            3.79195025936527        3.09394496140304       -0.41289622587381
H            4.97072353815116        1.89470652580041       -0.19492186702750
N            3.62010400917251        0.00155259186243       -0.01191585215274
C            3.08470928068017       -1.20640795556279       -0.00018343150338
N            4.04314664897891       -2.21287167268359       -0.06542923188133
H            4.97667629283017       -1.89084524220067        0.13618281080246
H            3.80211992945608       -3.09713652956318        0.35226022313539
C            1.73542537288543       -1.62184253828161       -0.00853085111237
H            1.56535825365410       -2.69322130625126       -0.03392714497261
H            1.55932255313442        2.69226781364953       -0.03750193027845
H           -3.83136576494000        2.09800985155261        0.05883661979623
H           -5.56192606514040       -0.84237717739258       -0.23095591511608
H           -5.56011634932221        0.85658267009163       -0.19978606624149
