32
 energy: -58.313096832386 gnorm: 0.000686745488 xtb: 6.6.1 (8d0f1dd)
N           -6.19865097287510       -0.02217419378277       -0.00311563234254
C           -5.05025109887144        0.03812282872513        0.00675766492583
C           -3.64041499216461        0.10622806821586        0.01039982150222
C           -3.14834582232717        1.42909537844477        0.00703250292835
N           -1.91593937923589        1.90625167826518        0.00430783071622
C           -0.90173222075297        1.07458768345011        0.00214652915401
C           -0.79580001606888       -0.46149857622868        0.00140279224706
N           -1.66365361061016       -1.42726401942165        0.00393946519840
C           -2.98190804766471       -1.15743896910294        0.01279414145316
N           -3.74985817267877       -2.27792043124112        0.04668910524720
H           -3.28791026236366       -3.16581055905535       -0.02639229094724
H           -4.74993183869801       -2.22302400397158       -0.02786678930037
C            0.60357032238531       -0.33083053424245       -0.00277852206010
C            0.48740048283983        1.14210025433157       -0.00202547836517
C            1.46592963235894        2.14566344783263       -0.00334520133437
N            1.02798514825871        3.42255496730290       -0.01179741382626
H            1.66422679717648        4.19888202664677        0.00720749306563
H            0.03513203264541        3.58340824099701        0.00076015440383
C            2.83047893425345        1.86241726794750        0.00004204077683
C            3.51684495557561        0.63854177674758        0.00332847002593
N            4.87121262603553        0.75271424737059        0.00888363463610
H            5.45221093581674       -0.06770834449168        0.01421413718505
H            5.30701731865777        1.65635857772587        0.01282144915390
C            3.03809717149767       -0.70503993651815        0.00100512384113
C            4.01492901727086       -1.70952932803089        0.00296753003827
N            4.80081717140658       -2.55493869320571        0.00489805987848
C            1.69645313667706       -1.18295733768374       -0.00170709059069
N            1.46098040760204       -2.51184253369086       -0.00178787474550
H            0.50481703716110       -2.82175130256320       -0.00062194545594
H            2.21552305646919       -3.17597617474429       -0.00142808862978
H            3.47736322471354        2.73327937685124        0.00088852341914
H           -3.90950022149011        2.20308990612082        0.00577905390107
