32
 energy: -52.701124802229 gnorm: 0.000640837821 xtb: 6.6.1 (8d0f1dd)
N            4.11712963428284        2.25516708054387        0.00399821234922
C            3.15026651134240        1.25706161562139        0.04216258173265
C            1.80399462808867        1.70835791993943        0.02854670935172
C            0.74648516066418        0.86280811328032       -0.00158178276012
C            0.72149773435904       -0.65878049471253       -0.00162591823440
N            1.64251470354786       -1.59158662226518       -0.01710633292839
C            2.93757872204772       -1.29728127569409       -0.01132439602411
N            3.74886796168205       -2.42272601546420        0.03848693251722
H            3.26658786782387       -3.27721020063907       -0.19163876048128
H            4.67230712912037       -2.33928659042318       -0.35411979041253
C            3.60247831032768       -0.05378753280659        0.02258213279406
H            4.68469317313184       -0.15077977726987        0.03939384392393
C           -0.67080212246115       -0.63239836060148        0.00376094080334
C           -0.67467719677939        0.84953834989669       -0.00534005585505
C           -1.74932257552401        1.70776515361492       -0.04123227879811
N           -1.54890566477780        3.07039109006518       -0.02000720721345
H           -2.31066459885131        3.64953655476120       -0.33370832441403
H           -0.63037235171800        3.38475689951824       -0.28314773289656
C           -3.08153323731892        1.23752979962454       -0.03459336459539
C           -3.57981870163613       -0.06174252270397        0.00934966638310
N           -4.94825063337512       -0.17910677078586       -0.02780299400445
H           -5.52032255695613        0.60844841358610        0.22031715542476
H           -5.30690682212774       -1.09817373444163        0.16649743305110
N           -3.01796662033669       -1.28430632432149        0.03565707968210
C           -1.72283739799853       -1.55759221144641        0.01507033536931
N           -1.38986737274543       -2.86751558578660        0.00504993791917
H           -2.10949436041508       -3.56347790210690        0.06834338888929
H           -0.41601196381002       -3.10917288142637        0.05819507878542
H           -3.84032016188934        2.01206669531751       -0.06196801067793
H            1.65353367628844        2.78335500733886        0.05146061291527
H            3.83368956014615        3.15893243107750        0.34718127297873
H            5.04643376636751        1.98450016590987        0.28423852572531
