27
 energy: -47.698011292797 gnorm: 0.000674499342 xtb: 6.6.1 (8d0f1dd)
N            5.80267699544288        0.64922158617689       -0.00351505230301
C            4.65759788827694        0.59336266264150       -0.00206182604626
C            3.23804391069832        0.52559173802607       -0.00130533892796
C            2.61131112469274        1.76190900188159       -0.00107693371423
C            1.23094117779138        2.06073472518371       -0.00015109730282
C            0.25594303978839        1.12189500956678        0.00066778066571
C            0.31632947023092       -0.37651343581878        0.00084772906344
C            1.42269969590238       -1.22658131394097        0.00016204056055
C            1.16904427771462       -2.62016213692571       -0.00084894611768
N            0.93824626387741       -3.74357168326909        0.00229718826174
C            2.74269092541880       -0.80228843637906       -0.00080280776455
H            3.50055821553607       -1.57700285365462       -0.00135310349279
C           -1.07720623355943       -0.44720784510109        0.00184871810314
C           -1.17730943551289        1.03410916032191        0.00172990997873
C           -2.26738512838048        1.84822170189521        0.00216279188833
N           -3.55004092266832        1.47723642209980        0.00340328594800
C           -4.03438620026766        0.24573368911092        0.00416323451714
N           -5.38534576444769        0.23839565202193        0.00577031451465
H           -5.85721613953038        1.12641795947869        0.00639102830394
H           -5.91674677265244       -0.61318215263373        0.00671406681067
C           -3.42748525336148       -1.06068922164817        0.00346674446747
C           -2.09997093961349       -1.39144036741088        0.00249484480249
H           -1.82701362747787       -2.43934784515554        0.00226685499684
H           -4.13862820156001       -1.87661701584353        0.00396914890998
H           -2.13760281251269        2.92653945936569        0.00156135711757
H            0.95391513111410        3.10709816565648       -0.00006767118965
H            3.27744906035984        2.61653792855394       -0.00170118395143
