26
 energy: -42.370501071736 gnorm: 0.000978862567 xtb: 6.6.1 (8d0f1dd)
N           -1.30206830190131       -2.99621102428704        0.02337504877815
C           -1.54049875907666       -1.66343697204075        0.00314012163332
C           -0.48691789468111       -0.76517416032628       -0.00457000058158
C           -0.49705186340171        0.71019378268967       -0.01220501800167
C            0.91201911115656        0.74223336773429       -0.00987344943741
C            0.93147131190177       -0.76999085674354        0.00069066725249
C            1.99554587585746       -1.61881843451651        0.00943014164897
C            3.33725276902826       -1.18200691347526        0.01202219700911
N            3.87150300664910        0.01602495691075       -0.00339551279186
C            3.30797944304644        1.21039188902267       -0.02373784779815
C            1.96657421221323        1.61493316711277       -0.02704123289009
H            1.78082113242435        2.68377083886397       -0.04610031681888
H            4.04702129003992        2.00812548952458       -0.03852679232832
H            4.08923949758227       -1.96803688577023        0.02729800457096
H            1.83679751733494       -2.69217041532898        0.01669822190502
C           -1.57163996873842        1.60433610640982        0.00448488789384
N           -1.33588238081948        2.93470610119132        0.02953052599067
H           -2.12519437688238        3.55448494857794        0.07296801497924
H           -0.40169277835984        3.29174688556909        0.08985616475165
N           -2.86796921735057        1.28445635103809       -0.01221332246573
C           -3.38699271362541        0.06550346661819       -0.02996356666076
C           -2.88777297683578       -1.22082323400417       -0.01353323856115
H           -3.63012716827592       -2.00985279770944       -0.01922829888790
H           -4.47463307530666        0.12058160798607       -0.05491789822210
H           -0.35930621652184       -3.33806601173401        0.02311295728982
H           -2.06183444255707       -3.65204656521302        0.02076951614227
