28
 energy: -46.613414361885 gnorm: 0.000884420131 xtb: 6.6.1 (8d0f1dd)
N           -5.41980834888032       -0.76802357348176        0.02887754721616
C           -4.28631323601965       -0.57352818659484        0.01261255455868
C           -2.89374190998109       -0.33864867211322        0.00363567351344
C           -2.13558325697574       -1.55087274438106        0.02970299567940
C           -0.78475969535597       -1.75125608786671        0.03358381044451
C            0.16388828687383       -0.72518294711013        0.01507802906394
C           -0.06630628816815        0.74481169430421        0.00336076423906
C           -1.16881252292256        1.50693108400508       -0.01316427405153
C           -2.51372047878893        1.00436147678391       -0.02193168752461
N           -3.48679584405027        1.95666754280044       -0.08903827207154
H           -3.24639397132009        2.92443830577888        0.02463244553899
H           -4.45401542288320        1.69212812634639       -0.01209240977902
H           -1.06413780152888        2.58551896634555       -0.02493507578361
C            1.37750686733111        0.94249041702043        0.01003572726189
C            1.54199140216096       -0.52750236382657        0.01897770873459
C            2.74891851373026       -1.26106534220758       -0.00192972372069
N            2.68560931707401       -2.61309365159448       -0.00725225720571
H            3.52313214149074       -3.16063410206168       -0.09718124188657
H            1.79671071690804       -3.07010538117398       -0.09436402753040
C            3.98657228770561       -0.62527822624358        0.00447136587738
C            4.29456706093786        0.75122690954968        0.03608922809044
N            3.61407230680509        1.86100725927601        0.02801414646081
C            2.26080899377084        1.95984664361727       -0.00033845518592
H            1.91045105928692        2.98709617173890       -0.02211843925624
H            5.36628247190474        0.94760902156827        0.06567737110980
H            4.84905704882173       -1.28156550300708       -0.00602074069169
H           -0.43805459145628       -2.77781812249617        0.05901756458302
H           -2.75702308867063       -2.43864837547618        0.05019106891536
