31
 energy: -55.382433464710 gnorm: 0.000682670463 xtb: 6.6.1 (8d0f1dd)
N           -4.78489511744098       -3.17029453619526       -0.00088472658126
C           -3.99669258346081       -2.33472725206348       -0.00297914510880
C           -3.00531990901641       -1.32976998598264       -0.00405886177475
C           -1.63460000355801       -1.83893025575197       -0.01272188834655
C           -0.57471247159520       -1.03577533078807       -0.01233054565716
C           -0.41361402289411        0.44349371488863       -0.00596244879431
C           -1.37326053924940        1.44761529320467        0.00218840832889
C           -2.73538913003575        1.21616172841879        0.00683077195240
C           -3.57222165996090        2.35186021558173        0.01600031901592
N           -4.25955019504066        3.27246013156823        0.02460309348186
C           -3.44206694239061       -0.03876286165067        0.00429119729479
H           -4.52166118491453        0.08369625299148        0.01033307423675
H           -1.03318573324964        2.47664390113630        0.00544554059887
C            0.97955048356884        0.31956897542558       -0.01085248028954
C            0.89298358854080       -1.14286785322747       -0.01587384468233
C            1.81118401145757       -2.11767034651204       -0.01511810180082
C            3.23313313678317       -1.87720789680602       -0.00816442121224
N            3.99770400234649       -3.00302747270526       -0.02847955196729
H            4.99639773864756       -2.94312328340829        0.05419647593935
H            3.57040792144946       -3.90525093280511        0.07032696070290
C            3.87692901966948       -0.66071935530907       -0.00595433921214
C            3.43304523141590        0.69158498437829       -0.01492347901869
N            4.42178625380816        1.62513566105465       -0.04066346438602
H            5.38624870598621        1.35890609043316        0.02843920612955
H            4.18652394689307        2.60163781483623        0.00374459479385
C            2.11107574110551        1.15788691869328       -0.01126786855874
C            1.89318915497693        2.54687536160513       -0.00276577302909
N            1.73222185667778        3.68587425569847        0.00924644395710
H            4.96024048260592       -0.74006776128057       -0.00217036707262
H            1.49385609921521       -3.15248645068302       -0.01892226089110
H           -1.52473425984097       -2.91536177544568       -0.01905649404871
