28
 energy: -47.422769278185 gnorm: 0.000828114992 xtb: 6.6.1 (8d0f1dd)
N            5.61866709702464        0.45135065132154        0.00204600002708
C            4.47227038494743        0.47048804751507        0.00191399364720
C            3.05168281899658        0.49707486163647        0.00127784194781
C            2.50671069841041        1.77938469500990        0.00178672184469
C            1.15226759898657        2.14796598906564        0.00109144709206
C            0.11399345579367        1.27328324747421       -0.00014034167952
C           -1.30694982653883        1.30390779995631       -0.00094561660990
C           -1.34918573438736       -0.17911165384340       -0.00206338133981
C           -2.45936277518702       -1.03323388576825       -0.00331822650877
N           -2.30198267823001       -2.36857733114767       -0.00413241382617
H           -3.10898421653804       -2.96829449789043       -0.00506248405198
H           -1.39026707345070       -2.79744914060659       -0.00394710646385
C           -3.78702354882424       -0.53899915459413       -0.00377525143278
C           -4.27346484416382        0.75321174607157       -0.00318495096181
C           -3.64649231610615        2.00000987064077       -0.00191657341946
C           -2.28288470409275        2.26660208743101       -0.00085727681380
H           -1.96892765312731        3.30301988230615        0.00008361511671
H           -4.30647948387575        2.85676181558557       -0.00172287320286
H           -5.35684713831650        0.80860749636530       -0.00380796334883
H           -4.54268995202162       -1.31646875126316       -0.00477411022853
C            0.05592654882708       -0.23851051408385       -0.00128608254497
C            1.11398133914542       -1.13371530272429       -0.00143776253412
C            0.83823817073110       -2.51783151668060       -0.00322202995605
N            0.58393601454066       -3.63923433039661       -0.00338812524228
C            2.46985281075614       -0.78146737315998       -0.00022941935453
H            3.17042151053268       -1.60876977243025       -0.00064510267353
H            0.93139930439926        3.20824301987731        0.00180754660748
H            3.22571237296843        2.58912579343235        0.00267884561053
