26
 energy: -47.978688083722 gnorm: 0.000684502030 xtb: 6.6.1 (8d0f1dd)
N           -1.25164975773234       -4.13664758482058       -0.00054653611364
C           -1.50606725771244       -3.01886313897861       -0.00280705243234
C           -1.80918762377115       -1.63462733765253       -0.00145577973641
C           -0.75590638643985       -0.74523872668599       -0.00073533328645
C           -0.75172129318867        0.75033078491379       -0.00048964035164
C            0.66288361212845        0.74317294692554        0.00013470570495
C            0.65871138761590       -0.74600228506765       -0.00010630438447
C            1.73199154976714       -1.60703607005699        0.00043892334118
N            3.00380805131980       -1.25815609652279        0.00101153912803
C            3.50439085228503       -0.00938454230245        0.00121925230409
N            4.84677719280841       -0.01315249513506        0.00139252411488
H            5.33354571204090       -0.89274003761562        0.00132835157031
H            5.33848108028864        0.86368544051439        0.00162638049165
N            3.01081529012477        1.24216576120969        0.00143230949870
C            1.74097065616860        1.59817407948456        0.00096890183412
H            1.57974973128722        2.67223579512339        0.00131697502309
H            1.56474573831237       -2.68017645167996        0.00041607736665
C           -1.80000800882523        1.64559500768233       -0.00093116913389
C           -1.48916260927112        3.02811793753701       -0.00185569377048
N           -1.22851506670876        4.14447429260054        0.00073763635453
C           -3.15861071022879        1.28023939176864       -0.00162953328433
C           -3.72344357012956        0.01085176931833       -0.00205006430906
C           -3.16572143441688       -1.26168050863412       -0.00202794975757
H           -3.86863556385701       -2.08548239230834       -0.00263130700489
H           -4.80754883712598        0.01388419119134       -0.00266240645274
H           -3.85690307323947        2.10796292749121       -0.00198198261432
