30
 energy: -54.084519739335 gnorm: 0.000724104443 xtb: 6.6.1 (8d0f1dd)
N           -5.86708064677381       -0.46939825111595        0.06623191735899
C           -4.71802333090420       -0.42611529250504        0.03324448043032
C           -3.30779110529965       -0.36963268541775        0.00996411736340
C           -2.69537939459711       -1.62932208182564        0.03936341310867
C           -1.34259019073895       -1.96106118666076        0.03717139179492
C           -0.35534408802007       -1.01350963928720        0.01229870068240
C           -0.49248402193716        0.50714553519512        0.00344249376276
N           -1.49047498224449        1.34272906575137       -0.01254002194769
C           -2.76469403846728        0.95054330169625       -0.02775674394135
N           -3.64315488797572        1.99407305748540       -0.12546836671626
H           -4.62234534254688        1.84447944398720        0.04492544705083
H           -3.26463124590732        2.91491899744428        0.00817280097375
C            0.90291038139349        0.62043486382095        0.01565299035246
C            1.04091500223744       -0.85377357822261        0.01778380028981
C            2.22336569581767       -1.59489172224736       -0.02166399087253
N            2.17793324257929       -2.94852440316599       -0.04461088413761
H            3.03990795945053       -3.44921620478601       -0.16773860488018
H            1.30141131934630       -3.41879608733720       -0.17236156740887
N            3.45179374070848       -1.08166390405463       -0.01333555328743
C            3.81406532936294        0.20282217398524        0.02639090232678
N            5.15987565386889        0.33625530502785        0.08176737084610
H            5.73196528003349       -0.48664807534506        0.12285206318286
H            5.55768054254340        1.25605193724351        0.12611752631834
N            3.20141789834386        1.38555659577420       -0.00362891400475
C            1.88645175361438        1.60822910349539       -0.01499318325543
N            1.50830531077558        2.90204543200025       -0.04447432371081
H            2.20758864526018        3.61907569479290       -0.10977744206793
H            0.52858503925987        3.11880548630656       -0.08760431615837
H           -1.09005228730818       -3.01515403359493        0.06444479798031
H           -3.39114719697495       -2.46056504944036        0.06895041516659
