27
 energy: -47.692009162905 gnorm: 0.000647053462 xtb: 6.6.1 (8d0f1dd)
N            4.99493910539800        1.77500323206762       -0.00014374320924
C            4.00755031411740        1.18313769860115        0.00146005138733
C            2.80489983191034        0.45274889494858        0.00015935705509
C            1.63351064347512        1.24504311790563        0.00015898795663
C            0.37100156369621        0.75259474612059       -0.00010386392341
C           -0.13769673119432       -0.64155374449467       -0.00038858796421
C            0.54965245460276       -1.84322428382150       -0.00050757110223
C            1.91885094245269       -1.96157475143679       -0.00037713217894
C            2.93105703930103       -0.96283381700942       -0.00009216977218
N            4.19489467754501       -1.44136566910593        0.00006193588274
H            4.36719116411130       -2.43109449323652       -0.00012267662790
H            4.98010920005452       -0.81098827815474        0.00029164857289
H            2.30820990855919       -2.97243648168432       -0.00045429408031
H           -0.03435891260119       -2.75531321920389       -0.00072468353194
C           -1.46080281985709       -0.18104917463735       -0.00047486834866
C           -0.97980892651917        1.23961110347252       -0.00013979078170
C           -1.67889676321000        2.39813579563382        0.00004863780884
C           -3.10271139816053        2.44040558201010       -0.00010741986929
N           -4.00336233291830        1.49837086147000       -0.00041673981916
C           -3.89420787963960        0.17708421008426       -0.00065320845050
C           -2.76567734404743       -0.65769973076853       -0.00067927741160
C           -2.96686004810290       -2.05706186374686       -0.00061228352692
N           -3.11451765045214       -3.19469708543249       -0.00142540415344
H           -4.86013519222986       -0.31993931038490       -0.00082178257330
H           -3.54150986667571        3.43494351654292        0.00004812753573
H           -1.15493167642828        3.34537366617353        0.00030384089963
H            1.78449861821291        2.31821557688717        0.00052090062605
