29
 energy: -51.937707813992 gnorm: 0.000638408252 xtb: 6.6.1 (8d0f1dd)
N           -5.71527326520326       -0.45255113836566       -0.00561647480847
C           -4.63201302881626       -0.07115092791900       -0.00705593831989
C           -3.30697665839930        0.41816607123641       -0.00352838463039
C           -2.30164790226042       -0.51724068161190       -0.00091090458229
C           -0.94295198522270       -0.19097804809229        0.00065807590026
C           -0.28722584878942        1.13821860085180       -0.00009380875296
C           -0.74973688033613        2.39194913195212       -0.00175788397293
C           -2.15939437714859        2.70599795636363       -0.00387818194887
C           -3.21800837337745        1.86811268395329       -0.00478740999539
H           -4.19543501452210        2.33890819211422       -0.00691826676713
H           -2.38204603868680        3.76494394119528       -0.00522608267550
H           -0.05944998462200        3.22460460027869       -0.00169633982712
C            1.00786845300776        0.44083233037449        0.00208662975639
C            0.29608206208677       -0.83640061976893        0.00266532113785
C            0.82930079559706       -2.14804976736156        0.00199071552832
C           -0.08388513837642       -3.22466805461598        0.00006544896869
N           -0.83289138088394       -4.09429889662901       -0.00028889415656
C            2.17772594934138       -2.42802663606765        0.00162961313749
C            3.28864653084483       -1.55754315349363        0.00200553358034
C            3.41036231207105       -0.18429901601660        0.00379359383307
N            4.65714910380859        0.35669658184588        0.02231493879294
H            4.78588000577449        1.35221996450894       -0.02688174669934
H            5.46518234630478       -0.23753918397048       -0.01830371229038
C            2.31640079338216        0.78366376534029        0.00191543962918
C            2.65348572231636        2.15572370382922       -0.00398809380380
N            2.94289154223043        3.26680911993242       -0.01245622211089
H            4.24151005120229       -2.07581508227475        0.00243200770039
H            2.43645062762196       -3.47976456006206        0.00013020234278
H           -2.57185271744517       -1.56660293882728       -0.00047566306579
