27
 energy: -46.901722364822 gnorm: 0.000837190128 xtb: 6.6.1 (8d0f1dd)
N            4.39950888153277        1.78740825032952       -0.10227278399447
C            3.46278948263848        1.11481473032738       -0.06576497822563
C            2.31281464337309        0.31552236523055       -0.02846185906827
C            1.08393199345458        1.01582601078577       -0.02610609456922
N            1.09951424882533        2.36608126974693       -0.04801055285663
H            0.23512875020980        2.87276402019723       -0.08854090434384
H            1.97019063678139        2.86590286168787       -0.11252765531977
C           -0.14438318771126        0.34845160414723        0.00988819088823
C           -0.42317778848742       -1.09939515004441       -0.01273213307263
C            0.41251862166452       -2.17549055775629       -0.05200504613004
N            1.74192158400696       -2.15820023647214       -0.01448247236001
C            2.54387270697992       -1.10717489465925        0.02721716025697
N            3.84109971746433       -1.47552595417510        0.12003847623722
H            4.58653401753417       -0.80129298860797        0.13994005434121
H            4.03931887181402       -2.46053958693690        0.14029836189241
H           -0.00846713398812       -3.17375751682558       -0.10594244333497
C           -1.82959518931624       -0.82275262345368       -0.01780025118495
N           -2.90539156637859       -1.52353867042099       -0.04050496577361
C           -4.12324553147609       -0.95346190855692       -0.03990571449003
C           -4.51104198843705        0.37207451480890        0.01717802576905
C           -3.76610030807172        1.56184178805945        0.07398543788803
C           -2.38926196808784        1.72186925392636        0.06966785581555
C           -1.51404121232367        0.65705391981767        0.01169244670221
H           -2.00566943974208        2.73551763568895        0.12334376890803
H           -4.35244213532041        2.47105996567940        0.12415261792020
H           -5.58526376520262        0.51924716847152        0.02104338370535
H           -4.91633683013641       -1.69227581059531       -0.08327790800033
