32
 energy: -59.117625610447 gnorm: 0.000773228123 xtb: 6.6.1 (8d0f1dd)
N           -6.17695776928198       -0.51202863508332        0.00796805972174
C           -5.04562396907558       -0.31024453180931        0.00139033275287
C           -3.65505605416756       -0.04876786172950       -0.00376617361423
C           -2.87628146332821       -1.22617501568932       -0.00321808740306
C           -1.50165998883927       -1.40318006633559       -0.00332230574476
C           -1.03968759137620       -2.73425156172588       -0.00185358871563
N           -0.63452046832501       -3.81065218205861       -0.00193059645974
C           -0.56414480057050       -0.35791299599149       -0.00355870070927
C           -0.84559307725425        1.10690380824282       -0.00489498468782
C            0.57753992614422        1.35107682307327       -0.00340653544350
C            0.81036735481189       -0.10840798026138       -0.00212766496651
C            2.04511559718679       -0.79531205357417       -0.00007364173758
N            2.06605962468508       -2.13880692478328        0.00066943155094
H            1.21683921110591       -2.68014565093186       -0.00036262736970
H            2.94766589284490       -2.62548625182833        0.00214236403797
C            3.27016553811074       -0.09709064614177        0.00134078484050
C            4.41856671837210       -0.90333805114010        0.00254783516244
N            5.35991201665552       -1.56984480623212        0.00691803122610
C            3.53185228431016        1.32939997412931        0.00110520474214
N            2.75230627292488        2.38998075840327       -0.00111451398688
C            1.41566017199971        2.41527536080116       -0.00332628982141
H            1.00842441136987        3.42140478625693       -0.00506078293891
N            4.84095142287860        1.66776788100974        0.00365674039071
H            5.06170756147637        2.64807756580536        0.00313526930572
H            5.57227825874159        0.97822467930238        0.00493960197370
C           -1.97494063919356        1.83879338257527       -0.00637386560772
C           -3.30177797108569        1.31298459518606       -0.00670773336920
N           -4.29972113716787        2.23169021292390       -0.01917091888989
H           -5.26240951137786        1.94133293178843        0.00397269320749
H           -4.08648664825554        3.21192330683613        0.01292289440317
H           -1.89017388566764        2.91895106528468       -0.00772691383093
H           -3.46244097355158       -2.13896694670269       -0.00152674551886
