28
 energy: -50.627510114198 gnorm: 0.000540259528 xtb: 6.6.1 (8d0f1dd)
N            4.86882020010459        2.01107894697165       -0.03574881386108
C            3.89191001776444        1.39934190459025       -0.02329167433495
C            2.71210482317732        0.64126308620145       -0.00936650500290
C            1.50834648240495        1.38077583761841       -0.00248954083606
C            0.27819090657598        0.80453913515290        0.00580030340781
C           -0.10068655394425       -0.62824473758312        0.00813275784904
C            0.70721815199893       -1.77720046975313        0.01486649659168
N            0.09188703410902       -2.97224792378509        0.02590234311440
H           -0.91306519497987       -2.99680144041059        0.04459178369634
H            0.63816442361162       -3.81481199343763        0.04586450208761
N            2.03381403880532       -1.80665684278147        0.00955563268609
C            2.88695369738426       -0.78001668922389       -0.00415259071610
N            4.16586083889207       -1.21418511189379       -0.01251264046399
H            4.93659429903212       -0.56793939155683       -0.02113848619985
H            4.32528494759145       -2.20609588041543       -0.00769622358836
C           -1.45608518223019       -0.31889002464938        0.01472925781235
N           -2.59134135479593       -0.98437930463368        0.00154701774820
C           -3.74648094281875       -0.32682651322580        0.00612378416206
N           -4.84495329161924       -1.13808316083187        0.04778338428174
H           -5.74964243903155       -0.76646699361650       -0.18001378206426
H           -4.68770274762561       -2.11925785402638       -0.10392904075864
C           -3.99571152678891        1.07985954666502        0.01794083257616
C           -3.15065294543635        2.16363805189690        0.02453361365818
N           -1.80337924483894        2.24770241509564        0.01756869180526
C           -1.10221996900690        1.16793813849981        0.01437117836647
H           -3.61786096345652        3.14255758665159        0.03297491872906
H           -5.05204251413914        1.32734659227939        0.02382702736112
H            1.59280599226005        2.45962005160163       -0.00457199460742
