26
 energy: -43.173887935157 gnorm: 0.000623128736 xtb: 6.6.1 (8d0f1dd)
N            1.72629513423713        3.25397784882130        0.00162045307734
C            1.61270694629722        2.10909458051102       -0.00178907915099
C            1.52432422844337        0.70681360080800       -0.00017983660316
C            0.32451728748687        0.09113467635961       -0.00064854188390
C           -0.07612528993423       -1.31263595560632       -0.00098052798818
C            0.75198984989624       -2.45737731430041       -0.00105947120049
C            2.11011517460195       -2.39811463379385       -0.00059797319680
N            2.97443518442900       -1.34936017521210        0.00020679502696
C            2.79104624470439       -0.07657104673866        0.00042640669027
N            3.91449217061166        0.67977551550488        0.00134286830635
H            3.87551809916250        1.68365406914315        0.00130193410247
H            4.80060589296054        0.20664441864754        0.00166724290840
H            2.65608467555223       -3.33634666873187       -0.00085022964939
H            0.27624968769768       -3.42842257079768       -0.00152405731103
C           -1.42702023684103       -0.96093906532966       -0.00139132154277
C           -1.10292581651692        0.47386880997509       -0.00114367608295
C           -1.83512965066979        1.59185265937039       -0.00127801060982
C           -3.27968232882771        1.57470700060470       -0.00177482517939
C           -4.11683013986472        0.51392571478772       -0.00216356367654
C           -3.87140199381987       -0.90955111954745       -0.00220579297239
C           -2.69549582225529       -1.58308784307389       -0.00186514007156
H           -2.71420357378613       -2.66580747746485       -0.00199192021778
H           -4.77514222505729       -1.50609296516581       -0.00257706888817
H           -5.17386461138526        0.75529933774272       -0.00250764492454
H           -3.73751279604301        2.55585124440251       -0.00181274834719
H           -1.34967419977953        2.55829035168394       -0.00095741541479
