34
 energy: -61.765701701912 gnorm: 0.000722448626 xtb: 6.6.1 (8d0f1dd)
N            5.22678945205392        1.83742119565323       -0.02998086177585
C            4.25750012033404        1.20954382269292       -0.01635902124164
C            3.07201090426288        0.46991877309447       -0.00118646466677
C            1.86856202447832        1.22075484997218        0.00627847889824
N            1.91095630189127        2.57040957168386        0.01225944964000
H            1.03771642402038        3.06752356401872       -0.01514376584152
H            2.78756030836771        3.06064428980999       -0.02008002977328
C            0.62406220537640        0.60851842235017        0.00967077146604
C            0.19797164008715       -0.81839126999874        0.01943769350730
C            1.00380615017349       -1.95545500373241        0.04291451009292
N            0.47417987971506       -3.19480839298930        0.09609464279729
H           -0.51882948866351       -3.35392248146689        0.07573630609543
H            1.10832544544087       -3.97375914292702        0.08893209136599
N            2.34247638356596       -1.95589899352039        0.02109584273999
C            3.20647034246042       -0.95747113573355       -0.00789844381482
N            4.48283923284894       -1.41183201863037       -0.04518608632191
H            5.26380603907166       -0.77996302929317       -0.07239786373397
H            4.62537705473556       -2.40555496210296       -0.05162097336975
C           -1.15327262844750       -0.43166347026089        0.01412614971927
C           -0.71057027724042        1.02570728725687        0.00548581721806
N           -1.32103836144114        2.17551828511922        0.00011963058889
C           -2.65416045520057        2.27237484106231       -0.01241303012854
N           -3.08726200976347        3.57479345705472       -0.08528742802725
H           -4.02744624545915        3.79190313970290        0.19569645007546
H           -2.38718219514689        4.27310914337178        0.10025539050222
C           -3.64466174511977        1.27606427611799       -0.01702595636172
C           -3.60127221613986       -0.11360426803257       -0.00600200060533
N           -4.80630966664318       -0.77044776765244        0.05425958684528
H           -4.82271243873060       -1.75974587688131       -0.12921997561079
H           -5.64298951652940       -0.25766714705942       -0.16238646658169
C           -2.43500342921334       -0.94139687074317        0.00422302092940
C           -2.60987831077374       -2.33314948724833       -0.01214305163927
N           -2.72626767303466       -3.47977596187793       -0.03802686842422
H           -4.65368258723489        1.67791935698970       -0.03054385866381
