28
 energy: -45.815656008487 gnorm: 0.000471668869 xtb: 6.6.1 (8d0f1dd)
N           -4.74127694369523       -0.92271446709682       -0.03014159509842
C           -3.40136195786179       -0.65903432325515       -0.00583389856125
N           -2.68865677580453       -1.76505531914789        0.00788363305789
C           -1.34381184081202       -1.85226221170474       -0.00245478268037
C           -0.46026822772871       -0.83169565414338        0.01506812127592
C           -0.63889428446901        0.63321058624144        0.02011270458422
C            0.73643430302010        0.84652218421680        0.03886664015558
C            0.97813401390491       -0.62682488722138        0.02740134425966
C            2.11028652751884       -1.34336263804704        0.01821904554008
C            3.42152999514907       -0.72911831228165        0.01094247867580
N            4.47395328330919       -1.60708302712321        0.01744102346781
H            5.38514536205593       -1.20457946286653       -0.12285929557642
H            4.33033344825397       -2.55559763935995       -0.28081061920427
N            3.77604781113304        0.52344563915780        0.04283101143189
C            3.04196258605937        1.64695178004868        0.09817820235108
C            1.68586023849613        1.86823962874511        0.08740004023319
H            1.35136510888140        2.89886557874929        0.12806597741177
H            3.68221987325006        2.52438886427255        0.14340888787699
H            2.07272623954418       -2.42581205319030        0.00959486674808
C           -1.84960580213023        1.36039737160416       -0.02976880689109
N           -1.78118322715116        2.72253691261055       -0.01639997798295
H           -2.60506789736036        3.25471248730016       -0.23802926818581
H           -0.89158545276946        3.15110941561067       -0.20022287240660
C           -3.07882882197338        0.73364378702507       -0.04832331320835
H           -3.94228205588507        1.38887999479540       -0.09015677803294
H           -0.98826768678561       -2.87843694177907       -0.01086136231561
H           -5.41441417595688       -0.20378082100901        0.16322636736108
H           -5.00672106999301       -1.88318707145174        0.10268028181325
