27
 energy: -52.483879442468 gnorm: 0.000779182801 xtb: 6.6.1 (8d0f1dd)
N           -5.72736984468003       -0.47935396597006        0.02384112614659
C           -4.63772898945448       -0.11852212105371        0.01441196847084
C           -3.30653321798483        0.35037217410937        0.00632472064569
C           -2.30095223290607       -0.58396406437941        0.00352931822651
C           -0.94776476868050       -0.22898882294187       -0.00430335641862
C           -0.34929185901346        1.12789623655663       -0.00135757839674
C           -0.87961407901237        2.35499382085911        0.00594849412599
N           -2.22816256867911        2.64153055508447       -0.00974620081996
C           -3.19898212411817        1.81593329939039       -0.01127467544569
H           -4.17285199540432        2.30296818560242       -0.03094186436088
H           -0.25782257322358        3.24180219143694        0.01653894803599
C            0.97396097091755        0.48118377850803       -0.00113165328290
C            0.31282740314792       -0.82461741142478       -0.00335475558919
C            0.90556699694222       -2.11205769293402       -0.00398591771804
C            0.04852774463276       -3.23366804976838       -0.00681752355488
N           -0.66463515740656       -4.13227730352570       -0.00837422850975
C            2.27070639896063       -2.31237837411850       -0.00208196736539
N            3.29549355347337       -1.45042891850654        0.00163050087297
C            3.36298259685907       -0.15437011115179        0.00365473785605
N            4.60921089628583        0.35378221984292        0.00809844608829
H            4.77862631812032        1.34533143149712        0.00949820544091
H            5.38080113500216       -0.29158736949469        0.00960207116336
C            2.27319306504221        0.84881772168987        0.00163787087690
C            2.63315554297300        2.21184030092712        0.00380935582662
N            2.96739814006813        3.31032364624345        0.00377164524919
H            2.61615586355913       -3.34167167895525       -0.00322537583066
H           -2.55915536432122       -1.63645601962330        0.00792247186684
