29
 energy: -50.342281144234 gnorm: 0.000680684914 xtb: 6.6.1 (8d0f1dd)
N           -0.83854799053917       -3.98626272447744        0.12302200819625
C           -1.12956090851792       -2.87266979779902        0.09916778231044
C           -1.46401204463718       -1.50770243477320        0.07135166019284
C           -0.44284753607254       -0.55039682196711        0.02182395510868
C           -0.59985344164996        0.94864711849978        0.03170198718877
C            0.83042113008891        1.06578930247663        0.01063374588458
C            0.94087797748095       -0.41053851274022       -0.01931033343052
C            2.11768054533898       -1.20939658654326       -0.06757037065669
N            2.01262767562114       -2.54896867725549       -0.08515287675969
H            2.86840889214942       -3.07691006940908       -0.10842885403783
H            1.12802092245893       -3.02770452061877       -0.03990948864428
N            3.35982009076664       -0.76103851195938       -0.10586785073169
C            3.77963779881489        0.50821190467712       -0.08910561867705
C            3.17649966450726        1.73426188942523       -0.01649569759686
C            1.78308674979453        2.04935153403163        0.03702877423666
N            1.43495963877012        3.37031063902357        0.06121726007243
H            0.48982334767631        3.60792138520430        0.30325319291649
H            2.14583838613774        4.04546133885166        0.28463206763266
H            3.84008373947952        2.58999145923774       -0.00596881762900
H            4.86730265944914        0.53854813677608       -0.13424935134190
C           -1.70155709520726        1.72269678118658        0.00016544987471
C           -3.03812465611728        1.19510526284170       -0.02102030654562
N           -4.04519591354699        2.12298313913071       -0.05640475772710
H           -4.97194550066101        1.75801669622879       -0.19884219964108
H           -3.85711343938981        3.05698010754464       -0.37450105944479
N           -3.47241385028392       -0.04049782906010        0.03986689484063
C           -2.82495990446561       -1.19494371417108        0.10623803375750
H           -3.50654168345930       -2.03895818428207        0.17341414514825
H           -1.61499773968666        2.80320147662034       -0.02830466109691
