32
 energy: -54.297366644550 gnorm: 0.000695970000 xtb: 6.6.1 (8d0f1dd)
N           -0.75055548854952       -4.14061816836970       -0.02727385265188
C           -1.02222442277235       -3.02177590929973       -0.00071200831118
C           -1.36621348534612       -1.66071397039332        0.01194895490889
C           -0.30313683592358       -0.72664643219619       -0.00226634133439
C           -0.33826098668392        0.74350437635397       -0.01851002391826
C           -1.34863721399372        1.64295360287394       -0.02269375412891
C           -1.03170937458997        3.01751766939447       -0.02919270052136
N           -0.78947783330407        4.14093159658391       -0.02281124048656
C           -2.75818957200466        1.26853563874986       -0.00524392163456
N           -3.62998980488033        2.32343654048174       -0.06429513426894
H           -3.28205986361698        3.25374684625083        0.09344826022489
H           -4.60581244780537        2.16041335417452        0.11015889002693
C           -3.27652494199972        0.00097715633224        0.01975223149246
C           -2.71481517343248       -1.31060444515891        0.02805467176061
N           -3.63594749813177       -2.32674260416443        0.11986149893645
H           -4.59082020867613       -2.13983778223567       -0.13072436944063
H           -3.30791256660670       -3.26745925837364       -0.02673536891911
H           -4.36301443895295       -0.01780735986036        0.03756574148454
C            1.12287327591672        0.75926565301919       -0.02665878122935
C            1.08752684995668       -0.72012143898967       -0.01128220007031
C            2.15927583111244       -1.63412646753949       -0.01237256252983
C            3.46525400784738       -1.28162674692000       -0.01841327728179
C            4.08229630561630        0.03854523156893       -0.02113397970599
N            5.45522932128984       -0.02183144034561       -0.06915465953609
H            5.91192646251680       -0.88000439674579        0.18684183798208
H            5.97407631157460        0.82450608119934        0.09267780384270
C            3.50854826414952        1.28176293509057       -0.03218704001791
C            2.12761587988853        1.64773450708900       -0.04136779471902
H            1.90435533588665        2.70648362260720       -0.05121474403455
H            4.19984298123388        2.11602547604634       -0.03580212108945
H            4.18691573637850       -2.08971826400491       -0.02432895959123
H            1.90696735210682       -2.68730334170779       -0.00823411983744
