31
 energy: -49.781685150286 gnorm: 0.000437705313 xtb: 6.6.1 (8d0f1dd)
N           -6.12993887749190        0.00024452582054       -0.02736567218195
C           -4.98172851578601        0.00013968016346       -0.01877947855814
C           -3.56406438272843       -0.00023592318077       -0.00962781062000
C           -2.99923768641768        1.27940761922949        0.06798717177544
C           -1.65162256587762        1.64041877489092        0.08340611294251
C           -0.61032531647509        0.75757341153666        0.03112451965963
C           -0.61022641057580       -0.75762098158181       -0.02156784805722
C           -1.65074319054922       -1.64064587304332       -0.08420473323553
C           -2.99858686642817       -1.27986280389078       -0.08104860072049
H           -3.71289690739338       -2.09289333423875       -0.13859746310861
H           -1.44100616262156       -2.70324746888670       -0.15027141943202
C            0.80261330438067       -0.73463262906690       -0.00859140143357
C            0.80249597339955        0.73453838186494        0.02711857908008
C            1.85336162778278        1.65100012286659        0.02029814952106
N            1.55920763428884        2.98370470434692        0.07006340311784
H            2.28560626179149        3.65032707227676       -0.12590012607432
H            0.61436180825370        3.26354219739766       -0.12216483011999
C            3.19692524470444        1.27246025044047        0.00055186722846
C            3.78295861603281       -0.00025365233650        0.01471312108966
N            5.15594022804790       -0.00086130875618        0.07245468636155
H            5.64690429142879        0.85289700365700       -0.12694697640708
H            5.64628076323613       -0.85483413839513       -0.12757572524185
C            3.19639222939524       -1.27304687261948        0.02408701577888
C            1.85312071122723       -1.65114886819091        0.00792067916264
N            1.55890503216326       -2.98536584871359       -0.04371357377878
H            2.28292658061932       -3.64636596781162        0.18032493773283
H            0.61486213710325       -3.26019690969700        0.16207154738580
H            3.90279611276387       -2.09638175670187        0.04188347626493
H            3.90333320222295        2.09595328709533       -0.00942619884440
H           -1.44297871476930        2.70325317288518        0.14976793415251
H           -3.71414819952809        2.09239070533950        0.11832661906022
