29
 energy: -51.139261624927 gnorm: 0.000668345405 xtb: 6.6.1 (8d0f1dd)
N           -5.27406770246726       -1.34900014207390       -0.12137275495575
C           -4.28019126690743       -0.77267591647282       -0.09025229812750
C           -3.06509402919418       -0.06157534211150       -0.05278068468045
C           -1.87475471406839       -0.84108144732813        0.01833332567884
C           -0.64531595128500       -0.27840142151816        0.00268372319339
C           -0.21258880102442        1.14625863207544       -0.02417958202484
C           -1.00317823623755        2.29508164272725        0.04629125109232
N           -0.43242691101516        3.51105998851459        0.18585350681357
H            0.54656565460375        3.60006370508197        0.38518438055121
H           -1.04485531617152        4.29965617104973        0.30663553403495
N           -2.33813703188476        2.34009940612860       -0.04862868989965
C           -3.18140382890626        1.33155324758463       -0.12954904009039
H           -4.20411383856722        1.68697064751740       -0.25252200270178
C            1.13912901389869        0.75799320395454       -0.00076451686123
C            0.73105917406511       -0.67848208684788        0.03306534392403
C            1.47517921345380       -1.82043645855779        0.06130486854484
C            0.81556802574308       -3.07295408738238        0.08321193627967
N            0.29198606714255       -4.09291150788694        0.10234278896026
C            2.89886301915380       -1.83753059985367        0.07718731662739
C            3.77611168723899       -0.78939026559295        0.03335023893223
C            3.59757633626191        0.61785411443038       -0.04213565861376
N            4.75743803598845        1.36054790324663       -0.04074037264993
H            4.70197096883044        2.32711342225080       -0.31165112035307
H            5.62213111585956        0.89514486291323       -0.25534573303544
C            2.39381090854712        1.32303010174478       -0.05674948644761
H            2.46899944255946        2.40310623774294       -0.12575186376700
H            4.82141499273434       -1.08062486725431        0.05271338729549
H            3.33808668966669       -2.82631665679707        0.12357095049649
H           -1.97886140141775       -1.91821747448455        0.05826623298364
