30
 energy: -50.064461367561 gnorm: 0.000726655205 xtb: 6.6.1 (8d0f1dd)
N           -2.53090033016004       -3.37577738749266       -0.05136075859485
C           -2.47855238108363       -2.22598772127930       -0.02754019391849
C           -2.36463438433579       -0.82268814790580       -0.00434370706187
C           -1.11602922955196       -0.24212489070568        0.01895217881432
C           -0.78845137001396        1.26066840915612        0.02431865334277
N           -1.47885607481253        2.35779077456726        0.01815556223783
C           -2.81097213070061        2.35402578224914        0.00786065111771
C           -3.72893399789270        1.30144652030806       -0.00522707023944
C           -3.56449601255642       -0.07446637208218       -0.01296486769832
H           -4.47358084061860       -0.66459292642351       -0.02919084225641
H           -4.76384165337496        1.62718397633365       -0.01320068727099
H           -3.22899013224357        3.35552294079750        0.00819650221938
C            0.57449830286728        0.93250414306094        0.02643580715716
C            0.26587503731109       -0.50322271144179        0.02286161362127
C            1.14639974182089       -1.59736735016720        0.01902134946201
N            0.64750051465028       -2.85399995836505        0.05798314460981
H           -0.34426227252492       -3.02088610196379        0.02541567597930
H            1.26480414316320       -3.64345859154304       -0.00461696587772
C            2.53482551052672       -1.44089641337117       -0.00390102822738
C            3.34960745320807       -0.29886265517823       -0.02939679563481
N            4.69291528433606       -0.56107976761690       -0.11067657293614
H            5.02147510931500       -1.49558649904972        0.05461122010266
H            5.34688871054914        0.18506797416803        0.04436059626826
C            3.02165158120622        1.06561382167043       -0.02267350727312
C            1.76614545152814        1.66562119317024        0.00895710399485
N            1.64316878877561        3.01347796338521        0.05266924656189
H            0.71316578098755        3.39475190973266       -0.00868584445861
H            2.43652068270126        3.61069315644235       -0.09466866367719
H            3.86705043112432        1.74395902175785       -0.04500770353779
H            3.08629914529835       -2.37579342511366       -0.00988448762579
