26
 energy: -43.169577678605 gnorm: 0.000629325882 xtb: 6.6.1 (8d0f1dd)
N           -1.92560692046132       -3.53042769089074        0.00316074874116
C           -2.03213144931324       -2.38751281773831        0.00474031466759
C           -2.12321624700943       -0.97654012791671        0.00245894944788
C           -0.94434573853702       -0.24355495688786        0.00192874667953
C           -0.76491967060321        1.26768944376036        0.00092335431409
N           -1.56246891919073        2.27264456461857        0.00022492290930
C           -2.90050404095995        2.11905133321286        0.00028098218340
C           -3.69549374552294        0.98554560998234        0.00101297539107
C           -3.38796136955778       -0.38187757526651        0.00199294088047
H           -4.23259644243586       -1.05985020828944        0.00259212112390
H           -4.75948040212925        1.19619299971821        0.00086587925825
H           -3.41647421488167        3.07284632312279       -0.00034037481663
C            0.65090444323350        1.06999110556053        0.00110781255367
C            0.44228028608578       -0.39984790023902        0.00213446971556
C            1.37569880877190       -1.43101737100504        0.00285951702480
C            2.73318896600952       -1.25548228431985        0.00279759187282
C            3.50207191678320       -0.04811313521507        0.00205679301852
N            4.84561052851410       -0.24907989061694        0.00209227573618
H            5.22722170988046       -1.17757057128646        0.00339397734356
H            5.47929477146889        0.52984695663735        0.00221012808505
C            3.08567748402251        1.28528267363611        0.00113732591311
C            1.79152323273965        1.81506775011317        0.00066770601637
H            1.69695676368149        2.89318340831862       -0.00002225980987
H            3.89042073254624        2.01081438666413        0.00072966583831
H            3.33381165672781       -2.15713629172991        0.00338339316699
H            0.99667578873738       -2.44595324844317        0.00347263984488
