24
 energy: -43.720316834272 gnorm: 0.000555191533 xtb: 6.6.1 (8d0f1dd)
N           -2.00616423305761       -3.54103371974522       -0.00296733810109
C           -2.03472360387126       -2.39395310740423       -0.00153911447866
C           -2.06882525093624       -0.98236197842643       -0.00118151317479
C           -0.92018851400759       -0.25504575832317       -0.00054896024179
C           -0.74166830939830        1.25277964282856        0.00045017244174
N           -1.60372636878941        2.24567034144939        0.00082097859801
C           -2.89623213787459        2.03830454628877        0.00032676906559
N           -3.66116213902193        0.93189784080107       -0.00043896672831
C           -3.35743898544711       -0.32270147472241       -0.00103777191611
H           -4.21917225114589       -0.98700677641547       -0.00146934817166
H           -3.49066953740433        2.94708800186159        0.00061454370489
C            0.64234326118507        1.09103399031687        0.00073385736774
C            0.50391062315186       -0.38719610709125       -0.00025907986472
C            1.44162334072390       -1.37466756993754       -0.00065532881456
N            2.76865182757049       -1.21813480087176       -0.00020904908096
C            3.44730143479636       -0.08460837152701        0.00071912137965
N            4.77880253717408       -0.29585225926764        0.00094818258542
H            5.44325387596053        0.45699829114945        0.00163147900834
H            5.09807261463985       -1.25009258208886        0.00040714044679
C            3.06313490644758        1.31072658014575        0.00153845179298
C            1.81160196461645        1.85412000388917        0.00155447501142
H            1.70981735267589        2.93138085937137        0.00223918297493
H            3.90153075503250        1.99535505514613        0.00221255373478
H            1.12982316347972       -2.41467666582710       -0.00143933113968
