33
 energy: -62.055167345328 gnorm: 0.000845852072 xtb: 6.6.1 (8d0f1dd)
N            4.89733509191855        2.03526344890202        0.03333953003352
C            4.00738195743637        1.29934671526639        0.02345874050430
C            2.92279483663274        0.41439550292562        0.01361897683929
C            1.63737388425485        1.03249297809308        0.02380243155316
N            1.57907382439384        2.37994085022484        0.04877972974181
H            0.69623503442386        2.86209392045402        0.04052029520354
H            2.42813887842656        2.91967825616905        0.05015001529787
C            0.47160118051151        0.27362020152442        0.00888077001974
C            0.31613146418267       -1.20989073897254        0.01005490539213
C           -1.07421927795481       -1.08108793767327        0.00598257457183
N           -2.09350476205028       -1.89284792306708       -0.00123597182533
C           -3.34764763141835       -1.41983163742222       -0.01463912204614
N           -4.29586454630068       -2.39343887976738       -0.07041979480776
H           -5.25449864744714       -2.12881874485653        0.06401725211395
H           -4.01235467671335       -3.34425972331907        0.07933059488933
N           -3.85405165275817       -0.19362327661685       -0.01140017119888
C           -3.30810832824591        1.00504754256194       -0.00547088048811
N           -4.22139970069700        2.01255245189714        0.03005539704409
H           -5.19107922841530        1.76736639715965       -0.05589989375351
H           -3.93754786440816        2.97060504497234       -0.07318955964503
C           -1.92394235183976        1.38629232631736       -0.00404347898637
C           -1.61316024279197        2.75230400597808       -0.01608672212354
N           -1.35017236093555        3.87480201352763       -0.03433026844938
C           -0.92079318366234        0.43699724427055        0.00485606710233
C            1.24789543279248       -2.24182150120640        0.01349875284379
N            0.79774230935162       -3.51314195692336        0.04726702178022
H           -0.19280357362726       -3.67587364410860        0.00593592278206
H            1.45541709266572       -4.26947313593432       -0.00542489781833
N            2.57413672477980       -2.10107615805108       -0.00813632826200
C            3.27390061590376       -0.97485350039027       -0.01725520400624
N            4.60247922385352       -1.23205939076350       -0.06139422054020
H            5.28401498436222       -0.49343530859581       -0.06389250871962
H            4.88893094497577       -2.19444632337599       -0.07207544554294
