35
 energy: -67.077229692009 gnorm: 0.000660094100 xtb: 6.6.1 (8d0f1dd)
N            5.65740467438254        1.72601261549483        0.00209649398134
C            4.71233349137347        1.06410246461236        0.00229145323661
C            3.55959240932426        0.26597175951913        0.00082080822600
C            3.81335649185966       -1.16353882163414       -0.00121929155711
N            3.03140720395990       -2.22308773197933       -0.00074809685458
C            1.69554377532611       -2.24397450065343        0.00040480250442
C            0.86414690443461       -1.17254941883300        0.00021153123156
C            1.09906683702384        0.29856137411282        0.00016822283105
C            2.33889042540452        0.97403846884442        0.00108539675739
N            2.37942041147189        2.31752805664333        0.00252383428510
H            1.54049687714170        2.87371081674607        0.00227881409573
H            3.27004846007898        2.78764348109367        0.00318834382278
C           -0.27641172083553        0.54226780274776        0.00047121391935
C           -0.54604416504804       -0.92415383765078        0.00058038188177
C           -1.69097271389845       -1.65924524024865        0.00091205593567
C           -1.57152393345683       -3.06876015603052        0.00139913938331
N           -1.50098684897296       -4.21444704856555        0.00097395643731
C           -3.02399255063200       -1.11354782492288        0.00108738371457
N           -4.02318051139095       -2.02817917250055        0.00111195379258
H           -3.80636802562921       -3.01013693008500        0.00085904402207
H           -4.98626592382537       -1.73918209828555        0.00125096223491
C           -3.37147435331797        0.24643936976559        0.00125175265943
C           -4.76815746977502        0.46531494611735        0.00201652076331
N           -5.90673055755541        0.63088249771283       -0.00057245918881
C           -2.60361463787744        1.45777770216316        0.00124996397324
N           -3.32558773134050        2.61123880132218        0.00252561031684
H           -4.32983584118931        2.59335211484647        0.00105287143320
H           -2.85421058902644        3.49865435493159        0.00068618177870
C           -1.20158515502743        1.59626625122342        0.00056771738956
C           -0.70131646861986        2.90741358427494       -0.00102752703272
N           -0.28096873587192        3.98078437628262        0.00040202417414
H            1.27874850799288       -3.24558331944712        0.00125641150361
N            5.11953457791401       -1.50643565505990       -0.00379969392331
H            5.85409382271168       -0.81980195277234       -0.00396319077262
H            5.33442624699046       -2.48852012778593       -0.00492801865639
