26
 energy: -43.164668182951 gnorm: 0.000473594915 xtb: 6.6.1 (8d0f1dd)
N           -1.57661186432117       -3.25785115885389        0.02501866393461
C           -1.55618860029099       -2.10859537589406        0.00046211141791
C           -1.55854576479528       -0.69937537365450       -0.01422023169616
C           -0.30436178295780       -0.05341090412559       -0.01309074404459
C            0.02111437542091        1.39265336770120       -0.00567903139250
C           -0.74760540101741        2.49288073598159        0.00219919203772
C           -2.17748286433762        2.44706846173484       -0.00088331227226
C           -3.01150188485146        1.37619691138043       -0.01067989570188
C           -2.78904203300238       -0.04373793012306       -0.01881766618841
N           -3.92565783942469       -0.80261194789548       -0.07901184701688
H           -4.81745372186657       -0.38010195787045        0.10739254130654
H           -3.84969505136642       -1.79975617687560        0.03198715242986
H           -4.06921414469627        1.62052419060663       -0.01519013067121
H           -2.65918895890386        3.41688135320278        0.00520551973027
H           -0.28701256167527        3.47183810826719        0.01066818129274
C            1.43814343877953        1.04337329538930       -0.00164938865334
C            1.04325077708666       -0.39201310708357       -0.00778108797783
C            1.86837584165293       -1.53167761733218       -0.01160071369208
N            3.16189525667930       -1.57158043698444       -0.00491225834258
C            4.01286405182907       -0.50223497082581        0.00747647085022
C            3.85947180653787        0.84886648669245        0.01080475935737
C            2.64479025831979        1.62353868669378        0.00575738204390
H            2.74164997171303        2.70128928643046        0.00963347593039
H            4.77264476578483        1.43020789259887        0.01959456438668
H            5.04069978697887       -0.85859470210809        0.01479448725041
H            1.38381195802425       -2.50577853905275       -0.02227782641884
