29
 energy: -46.347172003643 gnorm: 0.000793967636 xtb: 6.6.1 (8d0f1dd)
N            4.80526642441865        1.53322961440957        0.01023156341809
C            3.82906891530235        0.92093440917152       -0.00067215603679
C            2.62369794665540        0.20090583626200       -0.00937343076172
C            1.43018834906785        0.98197180559759       -0.00359908849227
N            1.55048315096710        2.33042779161556       -0.00502264191768
H            0.73118274588527        2.90574849060692        0.05018099819039
H            2.46046505618745        2.75631951281161        0.03886688875694
C            0.17179037210115        0.40083052493575       -0.00885793779981
C           -0.26715731404324       -1.00849148535462       -0.01460383735462
C            0.44456376675989       -2.19383990234018       -0.01544366697583
N           -0.21556093405432       -3.38173670709917       -0.04551266264862
H           -1.21012189417947       -3.39422456618696        0.08232914575155
H            0.29399541404367       -4.23769202934758        0.08127684578640
C            1.86187887823610       -2.23225539550191       -0.01848973433795
C            2.76295470594033       -1.19787232662372       -0.01789417057092
H            3.80248346540218       -1.51193405801178       -0.02001842311186
H            2.28817286658916       -3.22838657286009       -0.02201586874965
C           -1.62818767990469       -0.59617006497372       -0.01019885227639
C           -1.17777001213412        0.83661891119432       -0.00472977521088
C           -1.91223058570983        1.99068048275626       -0.00368170532425
C           -3.30739263486772        2.04453776013200       -0.00038655563921
C           -4.22903064054645        1.00137270095046       -0.00248902789360
C           -4.06652520672437       -0.37646480279925       -0.01061582163586
C           -2.88428172448583       -1.12769729375405       -0.01720737729065
H           -3.00248081901658       -2.20617292559296       -0.03292626849654
H           -4.98362655021127       -0.95271734296698       -0.01485800317211
H           -5.26413501243311        1.32639851884438        0.00041377854163
H           -3.73560622482195        3.03939303798502        0.00322170930604
H           -1.39611701902357        2.94515658214018       -0.00553254695386
