29
 energy: -55.954665642427 gnorm: 0.000834473857 xtb: 6.6.1 (8d0f1dd)
N           -5.88039514923964       -0.07909627128580       -0.00105095810341
C           -4.73558083531511       -0.02935013171816        0.00220085053950
C           -3.31438278976722        0.02793066231322        0.00016267592794
C           -2.79901495600804        1.31844065927216        0.00005579635235
C           -1.44572698743693        1.72217332772014       -0.00030503862920
C           -1.17919583051088        3.11456318521288       -0.00089548507582
N           -0.95365018110103        4.23833729364575        0.00022139331387
C           -0.37874884412354        0.86258445589183       -0.00050954167258
C           -0.30485200151863       -0.64216737000513       -0.00058868176175
C           -1.34717826654724       -1.56421979848065       -0.00049665996202
C           -1.00747318244381       -2.93477802369756       -0.00096712298145
N           -0.67844638991739       -4.03556733559288       -0.00044115805694
C           -2.70337350679975       -1.24066605855746       -0.00009093812361
H           -3.38912759267406       -2.08012233284151        0.00013775378055
C            1.09376294785796       -0.56886540045460       -0.00084726756480
C            1.03934106320650        0.90989705910301       -0.00080601539588
C            2.05069461796669        1.84461066862280       -0.00099191399921
N            3.34224085379931        1.59248176605820       -0.00126004241728
C            3.91924734717889        0.37756119902002       -0.00139856546110
N            5.26083295116277        0.47083889186795       -0.00170405537498
H            5.67998117339678        1.38404670837017       -0.00180393979097
H            5.81891497951558       -0.36410711046248       -0.00183428323423
N            3.49638337799081       -0.88694590837958       -0.00130449506162
C            2.25962121669658       -1.37066363794242       -0.00105928878375
N            2.18643080908948       -2.70759141198511       -0.00102051564761
H            1.30926804732990       -3.20414935513341       -0.00089957525767
H            3.05047346488362       -3.22276430254158       -0.00119363566520
H            1.79924338219988        2.90077095893740       -0.00089060427013
H           -3.52880584557140        2.11946450374279        0.00036146727700
