29
 energy: -51.949166823881 gnorm: 0.000403143939 xtb: 6.6.1 (8d0f1dd)
N           -4.51845528517195       -3.04880469646114       -0.00002638572265
C           -3.65791743499504       -2.28874208422661       -0.00001498280609
C           -2.58679923339832       -1.36881753265772       -0.00023423454428
C           -1.28620346491051       -1.92813760318243       -0.00053950521531
C           -0.15112302185087       -1.18980193275245       -0.00067917447395
C            0.12887651437704        0.26774953770794       -0.00061097374276
C           -0.75692278133909        1.34990231726761       -0.00036035091098
N           -0.31024581748664        2.61342722464550       -0.00026789135104
H            0.67396064822066        2.82974052563306       -0.00044102979257
H           -0.96924319033015        3.37630122356292       -0.00003978787978
C           -2.17820511999208        1.15224916258603       -0.00008169197295
C           -2.94927258559423        2.33445140159557        0.00143317549009
N           -3.56446397548302        3.30581078823128       -0.00094587695052
C           -2.93510070730064       -0.02086416024430       -0.00001295153631
H           -4.00688293634997        0.15909566279950        0.00036409208531
C            1.51502689010053        0.01595427483766       -0.00086762302405
C            1.26103971902966       -1.45591842193030       -0.00093311364181
C            2.08219681188789       -2.53189414269106       -0.00117067868266
C            3.49261302162954       -2.45945187221844       -0.00141854072703
C            4.29633299224314       -1.34103777982921       -0.00148597753753
C            3.99088248475017        0.02688332469635       -0.00133379170216
C            2.74915083936633        0.66459413408019       -0.00104670372522
C            2.78390517151461        2.07675891366165       -0.00106123841071
N            2.79853443226344        3.22577852386709       -0.00066713087656
H            4.84625735518881        0.69171406928222       -0.00145959260823
H            5.36074593332222       -1.54572682970551       -0.00171090691712
H            4.00693008686618       -3.41136775218613       -0.00159795539228
H            1.63763527874506       -3.51905708772796       -0.00118281423036
H           -1.21296921730275       -3.00845454364132       -0.00062082120048
