27
 energy: -46.099968652299 gnorm: 0.000691961235 xtb: 6.6.1 (8d0f1dd)
N            4.44350222391958       -0.02174566101110       -0.00974192726305
C            3.08081540160378        0.01915407229223       -0.00999991273626
N            2.57737655363291       -1.21613210652006        0.01345650796245
C            1.30340589940370       -1.59565294246854        0.02470926477808
N            1.11974581137926       -2.93792693941148        0.04321932950516
H            1.92411958516183       -3.52650643414567        0.16703622075957
H            0.19894286339819       -3.31519795745404        0.16863242380068
C            0.19185291273758       -0.75017660229159       -0.01032754580612
C            0.14647152769952        0.71796840007325       -0.01113244843656
C           -1.25199283266986        0.70690737367221       -0.00269310914540
N           -2.21059672628395        1.58834061031419        0.01788998208383
C           -3.48585158215600        1.20533177144225        0.02384986644916
N           -4.09080797416211        0.03265677997043       -0.02651838599276
C           -3.60604327388375       -1.18857193309383       -0.06883454647745
C           -2.28161363071237       -1.67590915457408       -0.05304373921749
C           -1.21772547951836       -0.82761708671281       -0.01171559802391
H           -2.14662818415623       -2.75258032433445       -0.08713119794213
H           -4.39015731300281       -1.94214166015870       -0.12217032824134
H           -4.18047921382815        2.04153528924784        0.06639130187310
C            1.16952180177965        1.67377997645561        0.00566518459862
N            0.80072895403467        2.97310235795465       -0.00280295079003
H            1.47578747654812        3.70953611812937        0.09380505201420
H           -0.18196871092768        3.18330012308634        0.04307546722621
C            2.51522345116875        1.30690690636578        0.00789816954463
H            3.23094258502737        2.12049962414505        0.01440840622338
H            4.87310717078001       -0.92288679349165       -0.12064762649241
H            4.98774901522642        0.80419771321877       -0.17637270485414
