32
 energy: -58.322411682746 gnorm: 0.000856918796 xtb: 6.6.1 (8d0f1dd)
N            4.37964454476914        3.12759238803336       -0.06024637457054
C            3.61213680863084        2.26922369609970       -0.03009981004548
C            2.64518884324217        1.24908385133212       -0.00582059280254
C            1.26386828952054        1.70692984643180       -0.03944908570535
N            1.05578102760216        3.05108293716510       -0.04696184940701
H            0.13185219756584        3.39888772459345       -0.22486357837189
H            1.83780905213685        3.66880361717204       -0.18591223282649
C            0.22417487323156        0.82486353213063       -0.02723730766819
C            0.18462648611897       -0.66095837396212       -0.00353817202558
C           -1.20916655995045       -0.65583342680433       -0.03245465510989
N           -2.15620595455997       -1.56574572800120       -0.05603104258677
C           -3.43875687634005       -1.21391034268405       -0.08326279373254
N           -4.30337192943024       -2.25446256777616       -0.22025513467285
H           -5.28213311252999       -2.07726072797783       -0.08836633119194
H           -3.94654421236967       -3.18767047287876       -0.12669844501128
N           -4.05976974264644       -0.03157830274403        0.00554677340812
C           -3.60911052570957        1.19889489759697        0.05347789610056
N           -4.59318289137025        2.13727366863203        0.12588948368141
H           -5.53396217890249        1.80974070074050        0.25749935141756
H           -4.37808687416119        3.09093357454401        0.35230384032229
C           -2.26261548564471        1.69837263732825        0.01026350115193
C           -1.20923530340138        0.85679591445812       -0.03885544091039
H           -2.13668880180337        2.77455196328755        0.04435708998073
C            1.17111060131863       -1.64311945725529        0.03364867503993
N            0.77648402087607       -2.92805671282822        0.04734761179925
H            1.44904441607518       -3.67618502485709        0.06096623821784
H           -0.21090243093674       -3.12075194902560        0.01481683156942
C            2.55454037689164       -1.31487404285839        0.05848406170325
C            3.44301341533789       -2.40185338772031        0.10347965586798
N            4.13965494283756       -3.31828424442395        0.13904887516047
C            3.14374369172820       -0.03861970824910        0.03878572089990
H            4.23016696727355       -0.07872993699936        0.05804731861800
