35
 energy: -66.290872998258 gnorm: 0.000783787477 xtb: 6.6.1 (8d0f1dd)
N            5.82627899096801        1.39643940484960        0.06144078189080
C            4.71634191335801        1.09093666257199        0.02843638897046
C            3.35469414663010        0.72730292478547        0.00265306233580
C            2.46707128054593        1.84961884740523       -0.01085734008912
N            1.13769576521335        1.89391658409259       -0.00945407605024
C            0.38792220986236        0.82736984544259       -0.01058157664124
C            0.65145010216704       -0.67343973644579       -0.01114604071312
C            1.86406154200541       -1.33301803942333       -0.00553058341612
C            1.86252767957776       -2.73734334196501       -0.00059821907143
N            1.82561935281678       -3.88902303000836        0.00445328033818
C            3.12645628107423       -0.66738240289844       -0.00059215878900
N            4.22198229006313       -1.47484671870711       -0.00371463050275
H            4.11368537648307       -2.47329462735261        0.02356669271573
H            5.14637872814400       -1.08209291473859        0.02100878916152
C           -0.73383450618926       -0.89438286836025       -0.00734788323967
C           -0.98333826580937        0.57760298096745       -0.00609460157821
C           -2.14730014193491        1.33801004292293       -0.01829820127377
N           -2.02454109478964        2.68083968469179       -0.03685341973323
H           -2.83538932369097        3.27494627765551       -0.05507401640443
H           -1.09853623878760        3.07185622747724       -0.04918209573958
C           -3.42949114659093        0.73744406421271       -0.00609566939128
C           -4.51886136873268        1.61498861567788       -0.01400050844855
N           -5.40593006467685        2.35341071331514       -0.02207141733680
C           -3.73724229490464       -0.66390966444694        0.02653190927135
N           -3.00105792550396       -1.76028282289075        0.00386668294055
C           -1.67396295988334       -1.92629955323635       -0.02322237237607
N           -1.30164940366917       -3.22006815741933       -0.06766680689645
H           -0.33651155452246       -3.50366160780306       -0.06744418826111
H           -2.02846683962384       -3.91376762727446       -0.06816157165996
N           -5.05715403990721       -0.95815720177851        0.08317217984294
H           -5.32038890259133       -1.92717909907407        0.09843124125394
H           -5.75730211145217       -0.23705465365154        0.09733240195604
N            3.03019934771829        3.08739528766405       -0.04934176801198
H            4.02097160795060        3.21712468088937        0.04967503587670
H            2.41398030308230        3.87613103575296        0.02638421227031
