24
 energy: -38.926484498386 gnorm: 0.000691076836 xtb: 6.6.1 (8d0f1dd)
N            1.46547447453011        2.59112533262223        0.00115523914983
C            1.73473105089987        1.27347377792138        0.00129178713630
C            0.63389801420821        0.40238617145240        0.00101493498794
C            0.54016249721199       -1.07158425519083        0.00104040896415
C            1.51396546166405       -2.02606010033085        0.00134180304097
C            2.88628808716880       -1.73836434572072        0.00170870098748
C            3.52225589079286       -0.50390362656336        0.00184876847951
C            3.05856149046260        0.80849727416835        0.00168039824919
H            3.82035214898343        1.57895086845690        0.00187538799456
H            4.60528496588469       -0.57363550004945        0.00215488566058
H            3.54380853814514       -2.59794465490040        0.00191745927219
H            1.22064199196001       -3.06857403519990        0.00129898334221
C           -0.89058730715191       -0.98848645007806        0.00067865075240
C           -0.75203882149626        0.53263225469731        0.00067622780176
N           -1.62037075250147        1.51599013493209        0.00046145138622
C           -2.91804443765272        1.27623253663452        0.00017020789029
N           -3.65021637719138        0.15893657987390       -0.00001915966131
C           -3.30522258199287       -1.09510004052747        0.00006247410103
C           -2.01914561559287       -1.72526910151196        0.00040308689924
H           -1.98934243231685       -2.80841900000316        0.00042603581242
H           -4.15947948555275       -1.76953061515472       -0.00016818532159
H           -3.52745330717970        2.17589951918729        0.00003775140501
H            0.49989408431083        2.87803510118865        0.00093770344490
H            2.19784552210614        3.27853803579585        0.00143471232473
