26
 energy: -47.967691730628 gnorm: 0.000491193565 xtb: 6.6.1 (8d0f1dd)
N           -5.74047334243600       -0.70509723750166        0.00060224297790
C           -4.59940728326746       -0.59310168979909        0.00264119787111
C           -3.18530521751427       -0.46528106041965        0.00081145552616
C           -2.50842447614890       -1.72931416060310        0.00084916977055
N           -1.23597771292946       -2.02056494452509        0.00037234596109
C           -0.29577524539560       -1.10567212894035       -0.00016461529323
C           -0.31649691043157        0.41314909203440       -0.00046898946184
C           -1.36853868060525        1.28076861690395       -0.00026575009572
C           -1.12386508301394        2.67512988131982       -0.00050164403670
N           -0.90882915061782        3.80144632171836       -0.00099605234717
C           -2.72272243806873        0.83629989381947        0.00036777213315
H           -3.47450917420286        1.61759207452558        0.00063548489850
C            1.11006754568861        0.39799132037470       -0.00099564248763
C            1.09992588492627       -1.08675101346893       -0.00067464245777
C            2.18273120646704       -1.96387417669460       -0.00066579572281
C            3.48565534148210       -1.55069683037193       -0.00117661682668
C            4.00975919483244       -0.20633013603828       -0.00193962386104
N            5.35538789624759       -0.12686303713390       -0.00280441967968
H            5.94271233214343       -0.94140719408688       -0.00295806151919
H            5.76737123600106        0.79118687501866       -0.00335568927069
N            3.44785047782721        0.99320290734042       -0.00189145947362
C            2.14799010138962        1.28442812150384       -0.00137285308153
H            1.94349749734853        2.35089116066764       -0.00128991725467
H            4.24841413022089       -2.31872277749591       -0.00112719413948
H            1.97298640959325       -3.02531997372867       -0.00022898845662
H           -3.15779778883621       -2.59855628711872        0.00144893762761
