23
 energy: -39.199383217367 gnorm: 0.000276658880 xtb: 6.6.1 (8d0f1dd)
N            1.50345922691021        2.61640513984178       -0.00192684654548
C            1.72652291982808        1.29368008634265       -0.00161985571338
C            0.61172070433972        0.44157331665057       -0.00129528530682
C            0.54034724628793       -1.03563488636127       -0.00088401868320
C            1.53666535714243       -1.96694292237978       -0.00071238464945
N            2.85327934123742       -1.73408620110544       -0.00095988828545
C            3.44647422929707       -0.55642572759917       -0.00136585491580
C            3.03402846768346        0.77559085579121       -0.00163042844378
H            3.82985018316622        1.51039860674804       -0.00191085784280
H            4.52957165584567       -0.67621274908288       -0.00151095230697
H            1.28522601023403       -3.02361904252070       -0.00034211974089
C           -0.89370251111629       -0.96867559291257       -0.00073300391512
C           -0.77472143766397        0.54971543947521       -0.00118975381478
N           -1.65862615762404        1.52299421831132       -0.00143803311295
C           -2.94922912214997        1.26724017804054       -0.00123803918788
N           -3.66809934023845        0.13833325509920       -0.00061499568334
C           -3.30577289873830       -1.10922090336843       -0.00017406810620
C           -2.01134403727604       -1.72246459293236       -0.00027503306249
H           -1.96500650751297       -2.80436757585219        0.00008427957193
H           -4.15048104380656       -1.79559540242803        0.00036427254020
H           -3.57213476082858        2.15766068178023       -0.00157182997378
H            0.55037684978066        2.94223443632251       -0.00196595900186
H            2.26071551270225        3.27709512853954       -0.00222772321969
