30
 energy: -50.054592253245 gnorm: 0.000615769651 xtb: 6.6.1 (8d0f1dd)
N            5.24380111609925        0.05119671885872        0.11510435169087
C            4.09327500399237        0.03377788401511        0.04095419856687
C            2.68871749923615        0.02363396875151       -0.01871083458471
C            2.10677117870281       -1.31993191157846       -0.09074815868458
N            0.86708146719355       -1.70528823102177       -0.06607345497931
C           -0.16727658575852       -0.86547284152753       -0.03471615325034
C           -0.26423609763595        0.62519353670418       -0.02835673617024
C            0.68274164242288        1.57425380025912        0.01361836974456
C            2.09249446001228        1.28081756766428        0.02086338219010
N            2.89916076411740        2.37866651864197        0.04196631686437
H            3.89387612742516        2.26482999536562        0.14137378490609
H            2.50538157667889        3.28324562550787        0.22688322239724
H            0.42272274334399        2.62648301167215        0.06144064948789
C           -1.71337703271407        0.49404576517080       -0.00353496342504
C           -1.54466185739868       -0.98284619009756        0.01133308091813
C           -2.51354083091527       -2.00493267349579        0.04201314022401
C           -3.85215159456314       -1.79287547711895        0.06947376925194
C           -4.56657934510394       -0.54033484412218        0.07943480039271
C           -4.15450984726965        0.74213821255496        0.04174863233027
C           -2.80440669561505        1.28848264371494       -0.01577078332340
N           -2.71349527899941        2.66647929431337       -0.00844639599189
H           -1.82958131573292        3.05436024004816       -0.29242307442576
H           -3.52175028219778        3.17517117817455       -0.32816309570994
H           -4.92650006945860        1.50327735501833        0.06162455596686
H           -5.64265201326355       -0.67322853807883        0.12077640959265
H           -4.49349123263100       -2.66457814980040        0.08926330989955
H           -2.14207879623239       -3.02159502943562        0.03765661382936
N            3.01148671446111       -2.33824142814514       -0.23336584841133
H            3.97754459187371       -2.19368031640490        0.00515613148993
H            2.63261488223030       -3.26442109650858       -0.13299980988684
