32
 energy: -58.310573226424 gnorm: 0.000818204999 xtb: 6.6.1 (8d0f1dd)
N           -5.31225176465772       -0.64640039125985        0.00222340332651
C           -4.16667184818296       -0.52791143310301        0.00535235487813
C           -2.76417202898114       -0.38721892025207        0.00490104834644
C           -2.06425424479787       -1.64253487704429        0.01640627431367
N           -0.76715495852555       -1.89920263869641       -0.00449191377297
C            0.15206651206428       -0.96678326433592       -0.00934440718247
C            0.12575731670872        0.56268960834747       -0.00190896714641
C           -0.96068551627889        1.40437914138001       -0.00484002790709
C           -0.73448197046267        2.79145403707225        0.00120483629631
N           -0.50700476114842        3.92079447930508        0.01589806853985
C           -2.31882284174722        0.94816276154713       -0.01233886669618
N           -3.26724122355950        1.92710413631315       -0.06906327867843
H           -4.24073741819694        1.69055493845411        0.01371032714859
H           -2.99735965448590        2.89078059329858        0.02293857954126
C            1.53463641693097        0.55837456060025       -0.00773006988279
C            1.53687509630440       -0.93674554357117       -0.01862015796746
C            2.58403438223845       -1.87658954415722       -0.01075485146856
N            2.24122429701522       -3.17772224891194       -0.00244144348152
H            2.96465328694283       -3.87425140593274        0.02337794695191
H            1.26740214151666       -3.42640079133279        0.01929343513162
N            3.88395773404370       -1.61172995113349       -0.01392044595458
C            4.42331883691444       -0.39065719122610       -0.02030627982420
C            3.95601382440403        0.90136137546969       -0.01042070190195
C            2.62227298059544        1.41563179473625       -0.00185740584741
N            2.47696373691937        2.75614582127441        0.01051537236808
H            1.56853145372323        3.18939448758341        0.01296969484676
H            3.29011161976818        3.34611603137414        0.01478731460473
H            4.72382459301391        1.66601857176939       -0.01183136594811
H            5.50963679423210       -0.46855334215537       -0.03200881965864
N           -2.82959141350575       -2.77165612794066        0.09397054786086
H           -3.81991815899564       -2.73276480336657       -0.07097634860612
H           -2.35207466630969       -3.64583858660587       -0.03483801072977
