28
 energy: -51.414373507906 gnorm: 0.000388600715 xtb: 6.6.1 (8d0f1dd)
N           -5.48224509425852       -1.14227092815464        0.00031496509382
C           -4.34794866066728       -0.95539684031764        0.00134454183025
C           -2.95495041466344       -0.72148837984111        0.00089409552668
C           -2.19497816440264       -1.94390854321385        0.00088691548852
N           -0.92323039536414       -2.18230412912939        0.00092873328270
C           -0.01942623537201       -1.20837237716883        0.00101996721588
C           -0.13646147892516        0.28446315753690        0.00102558186210
C           -1.20856148999896        1.11208652541988        0.00097115011109
C           -1.00623570186354        2.51041974913142        0.00072267695926
N           -0.85726389254457        3.64888441684566        0.00131347622654
C           -2.57888167791783        0.62345890877536        0.00091235676260
N           -3.54095763227482        1.57595900476126        0.00091633767683
H           -4.51178071042511        1.31202160346745        0.00090848793790
H           -3.29409644732888        2.55067738806127        0.00094543186297
C            1.30988525068766        0.36437108029438        0.00112688023164
C            1.36549004778922       -1.11790231629195        0.00113886474062
C            2.50373934658423       -1.94312069420432        0.00143022940212
C            3.77113308495176       -1.46251338056038        0.00155139296872
C            4.22779729441775       -0.07138710877194        0.00127245155629
N            5.57445981577515        0.05094863830188        0.00107836991793
H            5.95686806593314        0.98098052168697        0.00078434544005
H            6.18722991219106       -0.74371460869555        0.00087405607110
N            3.61332805968701        1.08041430020689        0.00126821680251
C            2.27872426786255        1.30302015764118        0.00131632188759
H            2.02393710925550        2.35742782567206        0.00143239719940
H            4.57907148173318       -2.18308544971494        0.00177420062876
H            2.34452719675050       -3.01344784733065        0.00155484023752
H           -2.80863632351179       -2.83978671840737        0.00089510257862
