28
 energy: -52.211771486457 gnorm: 0.000537244270 xtb: 6.6.1 (8d0f1dd)
N           -5.93742808900306       -1.86747624578092        0.00257091496559
C           -4.96746940631772       -1.25377933012780        0.00280534728608
C           -3.78030015372172       -0.48551152744378        0.00235371888197
C           -2.59909597082372       -1.17804908368544        0.00127356691134
C           -1.33886804951110       -0.56244016137640        0.00101925997230
C           -0.99267533258055        0.87248807540736        0.00186959599131
C           -1.71622479683962        1.99691021010225        0.00296729586420
C           -3.16107795294255        1.99725724488428        0.00360176840561
C           -4.01298709129084        0.95138053338550        0.00335723278113
H           -5.06952288554284        1.19668097446799        0.00402579869406
H           -3.60741758755294        2.98306276749640        0.00442406074066
H           -1.22282019545015        2.95911185588696        0.00340733756114
C            0.42700905680355        0.48400097958157        0.00098142945133
C            0.00875595548927       -0.92706481786269        0.00013148249268
N            0.69573440532424       -2.07523750296913       -0.00104233236706
C            1.98278436575515       -2.10296214728921       -0.00159234414015
C            2.98378096428798       -1.05733720268268       -0.00111895807059
C            4.30009387983282       -1.57037859029337       -0.00207452001305
N            5.37353145039208       -1.98107825696288       -0.00242371449220
C            2.88892573308941        0.33190791612206       -0.00001440725756
N            4.01409404659470        1.07537927735567        0.00017872570491
H            4.91540726068802        0.62625722044656       -0.00045590417409
H            3.96629718212301        2.08048480803780        0.00098782249615
C            1.63599361063023        1.08868154664611        0.00100685586254
C            1.71257752141946        2.49855568743077        0.00214205637747
N            1.78424264794416        3.64443762401104        0.00285639842484
H            2.40282388492185       -3.10408679324969       -0.00257700418267
H           -2.62847635871910       -2.26026689293841        0.00063578313207
