28
 energy: -46.621486416408 gnorm: 0.000630736096 xtb: 6.6.1 (8d0f1dd)
N            5.21496208032514        1.08151191685179        0.02003604308432
C            4.20177687121378        0.53276315669972        0.00993319774405
C            2.95326463867094       -0.11107038060759       -0.00046227985261
C            1.82911474970542        0.73016781315046        0.00204309016943
N            1.99910044016727        2.07052710236621        0.00206336870805
H            2.92439883029599        2.46426027510499        0.03345262624408
H            1.20043415199710        2.67585441026089        0.04426240774662
C            0.51165325886002        0.22416767915946       -0.00348680116011
C            0.03159072363242       -1.16959422136549       -0.00172302654748
C            0.65030839339721       -2.36179373771057       -0.00507825461426
C            2.07117386162756       -2.51132754036804       -0.01193296631685
C            3.02265522527260       -1.54084113012094       -0.01008307140972
H            4.04822653152242       -1.89669153564814       -0.01429014318812
H            2.42778642297818       -3.53280371828190       -0.01871989098352
H            0.05895299362857       -3.26821853026036       -0.00424067200788
C           -1.33975239073471       -0.66023808177178        0.00219963517166
C           -0.79401762694959        0.72145778399488       -0.00363419458285
C           -1.51282596142577        1.91986858613392       -0.01968183328323
C           -2.88456564366228        1.98491204521639       -0.02350266296423
N           -3.83833227037058        1.03796796019143       -0.00372774623234
C           -3.75390984217661       -0.26029084425169        0.02189615669604
N           -4.95434229709502       -0.89915637938107        0.09645567118170
H           -5.78083139436765       -0.33307252137942        0.01503893810090
H           -5.02447243846246       -1.88782148170477       -0.06016703326062
C           -2.59052882166410       -1.13269336913570        0.01338402885800
H           -2.77519835990565       -2.19965588470004        0.02188607414022
H           -3.32800287576914        2.97661028132857       -0.04658379304811
H           -0.97599887441111        2.86104869042881       -0.03639096689317
