26
 energy: -42.371652696561 gnorm: 0.000979165649 xtb: 6.6.1 (8d0f1dd)
N           -4.46996768362131       -0.53928617037678        0.07153533556884
C           -3.11886406253774       -0.39960478979194        0.02079792473481
N           -2.52005833800042       -1.58817261455415        0.00509820417445
C           -1.21012098298353       -1.81772393147064       -0.01061527045569
C           -0.20603993268007       -0.89460893309022        0.00385647319807
C           -0.23313666616686        0.58077901911434        0.01793394336687
C           -1.35308626113145        1.43098610460370       -0.00216941573289
N           -1.14933177733135        2.77406882304452        0.01219125751317
H           -1.91959188170336        3.40308060173255       -0.12880166944004
H           -0.21806193054130        3.12432848215649       -0.11448772217570
C           -2.65207139991441        0.93761741776105       -0.00633373510430
H           -3.43682590715967        1.68634043871893       -0.01703953086820
C            1.16204351739603        0.65727837138513        0.01319713055918
C            1.22696593927718       -0.86082327425196       -0.00719637691443
N            2.16842575899550       -1.73061028349544       -0.02962309742793
C            3.46767789125365       -1.36830867446865       -0.03824578467604
C            4.06878131862039       -0.12743496539567       -0.00421063699518
C            3.53478687706143        1.17424035042958        0.04026354125749
C            2.20607924580341        1.56101512818140        0.04855796716739
H            1.99638909463365        2.62565930776331        0.09154679991702
H            4.26745736102697        1.97165771527638        0.07003371986017
H            5.15309031502403       -0.16092972772053       -0.01043564191886
H            4.12609263040627       -2.23005544711282       -0.07240403749531
H           -0.95402412363977       -2.87234582902747       -0.03576385231286
H           -5.09144964073217        0.24504930213375        0.00417422126678
H           -4.83572244185508       -1.47415973784484        0.03611005373321
