30
 energy: -54.860767668733 gnorm: 0.000619781982 xtb: 6.6.1 (8d0f1dd)
N            5.53573874991432        2.42055986184820       -0.13221545085638
C            4.68186808900019        1.65141810739950       -0.09846614215267
C            3.62961599678366        0.71821242743513       -0.04898807101418
C            2.30072415009456        1.27241802595713        0.03895140540158
C            1.20680446139993        0.49717070534692       -0.00727783967127
C            1.02719726412470       -0.97698823806214       -0.05586979312138
C            2.03262023103614       -1.96713057880560        0.05542589186628
N            1.66619558131907       -3.25029533255760        0.25454554924217
H            0.70707041619125       -3.48926955937789        0.42664015727618
H            2.39230607392292       -3.92743601706725        0.41457482749427
N            3.33575454853946       -1.77034127206965       -0.03341668823670
C            3.99046816378320       -0.61471160934849       -0.15029793767914
H            5.05343844061693       -0.79029881231866       -0.30956603839736
C           -0.36345387491366       -0.85836563674890       -0.02603450814375
C           -0.23778231202414        0.63043238936228        0.01975672853902
N           -1.04690167660718        1.61594084624583        0.05300221095626
C           -2.40041084321737        1.46115213020814        0.06711890621337
N           -3.01884665633496        2.66081323048802        0.15509687424519
H           -2.43572612401148        3.47821620761604        0.18347116765002
H           -4.01966412647049        2.74683882571138        0.16677524658460
C           -3.17253358293291        0.29042921832324       -0.00436276797215
C           -4.56149802009018        0.52944497961660       -0.01423280838379
N           -5.69402891758099        0.73608102689949       -0.03441509252505
C           -2.80144453955364       -1.10021615881313       -0.07987098444191
N           -3.84206979589933       -1.99134989045562       -0.09188309103133
H           -3.64990508284574       -2.94960309237537       -0.32283659795649
H           -4.77791880476000       -1.65911820665525       -0.25074113944495
C           -1.51742499172293       -1.62485744049764       -0.09278604173977
H           -1.43286531049843       -2.70276819557118       -0.17266252392155
H            2.21062888163973        2.34850626346702        0.09707898622060
