27
 energy: -51.694843912989 gnorm: 0.000397128129 xtb: 6.6.1 (8d0f1dd)
N           -5.29514944156736       -2.10905276392639       -0.00144811299538
C           -4.36267238004944       -1.43348685394176       -0.00182391244117
C           -3.24047152356977       -0.58812466197813       -0.00120059452414
C           -2.00639796151979       -1.19775586700463       -0.00034538772150
C           -0.80197067528220       -0.50251009298430       -0.00017351960390
C           -0.57460089478902        0.96762593897215       -0.00156772765391
C           -1.44006232903931        2.00458784503135       -0.00318660721502
N           -2.78792126024924        1.92837690679280       -0.00244511375218
C           -3.54248410238128        0.86521589037744       -0.00114373784319
N           -4.85820390587178        1.14666040045276        0.00038264339977
H           -5.12537274152821        2.11685413186115        0.00044401306590
H           -5.55852329912670        0.42364746201920        0.00112390919680
H           -1.07213858411519        3.02421992610301       -0.00493246978990
C            0.84640696139138        0.72761904769264       -0.00147028375514
N            1.90543015089173        1.45093361658973       -0.00223852304868
C            3.14174720448271        0.87587878833613       -0.00199340489374
N            4.12477561166997        1.79643560073541       -0.00311885813333
H            3.85878860369872        2.76559590458946       -0.00397795153555
H            5.09441539234721        1.52993543445135       -0.00311484095799
C            3.47755692108579       -0.49714439094035       -0.00075167772111
C            4.86246907316599       -0.77130167693620       -0.00115317839183
N            5.99301508005613       -0.97804811281029       -0.00028537951925
C            2.66014356565142       -1.66534542247840        0.00054669093412
N            1.36371737030190       -1.81440311561753        0.00091347671138
C            0.56815496013442       -0.75638573144753       -0.00007221762975
H            3.20917358304426       -2.60164927201433        0.00135907081612
H           -1.97206991103234       -2.28038451952475        0.00003197970257
