31
 energy: -54.579508195729 gnorm: 0.000883634883 xtb: 6.6.1 (8d0f1dd)
N            6.04852184300062        1.24977340161628       -0.01780311940871
C            4.93476966183548        0.96721347074155        0.00815198283735
C            3.56605605644734        0.61518895255320        0.02771086988328
C            2.71757570177625        1.73992223090194        0.08471461337156
N            1.40230633673520        1.85290060954756        0.08176104896709
C            0.61928717171009        0.81593981960799        0.05474814730071
C            0.85451795415815       -0.68647851044478        0.03227639012037
C            2.02281229090314       -1.38240802580554       -0.02483049873393
C            3.29919589341782       -0.77643808290176       -0.02778869497514
N            4.37524187571328       -1.62187600136796       -0.04095055131093
H            4.23544643606215       -2.59112835381598       -0.26321032803565
H            5.29694621203352       -1.24195057507029       -0.17651141109578
H            2.01383117691848       -2.46682601822435       -0.08151125633991
C           -0.54859541677575       -0.87685214361786        0.02391256303143
C           -0.77103451071603        0.58943359502784        0.03127594461015
C           -1.91860712489358        1.34281238196672        0.01230815891304
C           -3.20983698214396        0.82745770447173       -0.01995193324830
C           -4.24254376538048        1.77897470440175       -0.04758829981057
N           -5.09592430446588        2.55289270174518       -0.07140701369895
C           -3.62497808340359       -0.56024342780533       -0.02776281984804
N           -4.97079916940098       -0.73644215766349       -0.05943171722318
H           -5.36607758871606       -1.65878700922080       -0.08401769449118
H           -5.58719179310083        0.05748579725916       -0.09375387883642
C           -2.85993666539261       -1.71429260130661        0.00721186098105
C           -1.46069473065632       -1.91551471265802        0.03451798557421
N           -1.01606371147998       -3.20295806597909        0.02875406896657
H           -1.66425720770847       -3.95016950021556        0.20723866719863
H           -0.04636655988605       -3.37431542533146        0.22304003665134
H           -3.43907482481658       -2.63238384150450        0.00623674074531
H           -1.81514220291287        2.42080466770575        0.02045039596546
H            3.22636182443829        2.69802314378681        0.12420998243928
