34
 energy: -61.762513425218 gnorm: 0.000576677758 xtb: 6.6.1 (8d0f1dd)
N           -1.24816432475790       -4.15892905511962        0.03532016442789
C           -1.38414449246529       -3.01278480950364        0.04191847366963
C           -1.57253723601163       -1.62565897838780        0.03423606899303
C           -0.47419974309776       -0.77463990541144       -0.01111415824672
C           -0.44014221603708        0.74602812758562        0.01496632352954
C            0.95989791291416        0.70200471100184        0.02348916757384
C            0.91946770795581       -0.79566279785556       -0.02420148652500
C            1.98161747187466       -1.71265090699618       -0.07514359037566
N            1.73100199398407       -3.03883732581133       -0.16405834338193
H            2.49425735566434       -3.69103353278202       -0.15008767343508
H            0.79395822715239       -3.39995756795166       -0.11407171220754
C            3.31416069049515       -1.29696727704595       -0.06080907175484
C            3.86231097707433       -0.00457330026882       -0.00262390386980
N            5.22293032131959        0.05580374184671       -0.03430785354440
H            5.64471257640276        0.95843634545239        0.09149158047168
H            5.78647446133212       -0.76966031638401        0.04882461472196
N            3.34003287739832        1.21715834285163        0.06132661296360
C            2.05536530824288        1.57207584873533        0.07068111715817
N            1.87875613858473        2.90672122514819        0.15725558797697
H            2.70351813187613        3.48027048064656        0.15545353452728
H            0.96991444097691        3.33492632823200        0.12307749346399
H            4.04727160193659       -2.09417555258919       -0.10683971907351
C           -1.48868180598287        1.64620602475911       -0.02537522417169
C           -1.23472411640046        3.02380670719829       -0.02468869457859
N           -1.05161834608163        4.16280771263875       -0.01153724739566
C           -2.86548536988454        1.25048740986320       -0.08518404313014
N           -3.40917966363627        0.05682404422953       -0.00018155273568
C           -2.92109009667609       -1.16698490206496        0.09003550284171
N           -3.89615715488018       -2.10740265800582        0.28644558170244
H           -4.84475456496575       -1.80100745302490        0.15928120367883
H           -3.68541677256022       -3.08115033420411        0.15031053577713
N           -3.78531254559232        2.24242670385569       -0.28062857704685
H           -4.75182302869514        1.98896139320207       -0.17518639710001
H           -3.52193497545822        3.20476425345938       -0.15752438490597
