25
 energy: -43.445073157514 gnorm: 0.000750804811 xtb: 6.6.1 (8d0f1dd)
N            4.33867894313620        2.19134219001748        0.00209963032866
C            3.45908969404480        1.44856026608845        0.00113853513698
C            2.39343233937566        0.52998162581335        0.00000299745280
C            1.10230112283067        1.11406995226147        0.00016496654734
C           -0.05717679611452        0.41499691132887       -0.00078313028624
C           -0.33749482363476       -1.04211449769646       -0.00219154380497
C            0.54793788023199       -2.10899072279591       -0.00287212667441
C            1.91615860876950       -1.99737431373449       -0.00234529602629
C            2.75091080504617       -0.84178342556260       -0.00108170198460
N            4.07568983123050       -1.10912479435950       -0.00091422454798
H            4.74589261076721       -0.35747902131460       -0.00006425960397
H            4.40840813665298       -2.05695035060767       -0.00160409951613
H            2.47014465111851       -2.92865795691448       -0.00297582260819
H            0.13129145073446       -3.10892024876446       -0.00386602476067
C           -1.72047997060166       -0.81829897181895       -0.00239544147219
C           -1.46863251927413        0.67644796743148       -0.00098672166405
N           -2.22775009367528        1.71036098580767       -0.00031091047328
C           -3.57736649890145        1.57562512607856       -0.00085866045956
N           -4.37939302055976        0.55251311131555       -0.00190667141016
C           -4.13806672627694       -0.75890465498028       -0.00291576499099
C           -2.93806565093260       -1.46523059150749       -0.00325844938016
H           -2.97788109165247       -2.54798595319534       -0.00422399726705
H           -5.05565200549785       -1.34066023436127       -0.00358729263696
H           -4.08560266242576        2.53622079319095       -0.00024619206215
H            1.06161603130851        2.19618946827973        0.00110388466426
