30
 energy: -54.881387209281 gnorm: 0.000732013886 xtb: 6.6.1 (8d0f1dd)
N           -4.28140411935560       -3.48077271103656        0.00102074840211
C           -3.56593112702844       -2.58115153388497       -0.00059060226031
C           -2.66348508206924       -1.49778881292992        0.00003051380714
C           -1.26351903535903       -1.88177240305884       -0.00035645678466
C           -0.27499738948944       -0.98445455567694       -0.00041962647562
C           -0.26089858508242        0.48857657206891       -0.00017257747586
C           -1.30474357127171        1.44200580477956        0.00023740860949
N           -0.93316990705280        2.73336637183539        0.00045002209736
H           -1.61926466339787        3.46952809726790        0.00072593331232
H            0.05174936215451        2.94249264946557        0.00034055036938
C           -2.65722828615893        1.06700345068755        0.00049023203319
C           -3.58584672311290        2.12204259911293        0.00129402111417
N           -4.30884951087368        3.01835015365626        0.00088037366837
C           -3.21766019128138       -0.24437925605313        0.00039052801238
H           -4.30434199283373       -0.23227820782913        0.00064112504396
C            1.12658446271908        0.52832081175623       -0.00048213523253
N            2.05665043061585        1.48296914569775       -0.00056467597156
C            3.33408319756439        1.17503039780835       -0.00092388719264
N            4.18558125731017        2.22663342923165       -0.00089654749718
H            5.17315598367971        2.05491517502926       -0.00158733263943
H            3.81931254516770        3.16004007172090       -0.00106446731839
N            4.00788623100009       -0.00605755847374       -0.00124623259830
C            3.60165909932974       -1.23942707548137       -0.00136696848939
N            4.58907160689230       -2.16136061047546       -0.00185551480063
H            5.54204632697123       -1.84299945242700       -0.00172853244387
H            4.39154430177480       -3.14491049363757       -0.00152392228259
C            2.24694152846621       -1.78101195060227       -0.00116731557293
C            1.19530394491642       -0.95800843943722       -0.00076486380270
H            2.13267125540002       -2.85710513249786       -0.00134743380997
H           -1.05315401809494       -2.94283339831612       -0.00067077082135
