24
 energy: -38.923992482328 gnorm: 0.001000835587 xtb: 6.6.1 (8d0f1dd)
N           -1.47471074193502       -2.59482610068681        0.00005445319982
C           -1.73280782469604       -1.27359584432404        0.00074533262291
C           -0.60800646119167       -0.41934952891708        0.00121168650210
C           -0.50079463418422        1.05184198252609        0.00194662945772
C           -1.45358925080302        2.02175869205927        0.00241895251052
C           -2.83639370041691        1.75546317595148        0.00225437540914
C           -3.48809771140060        0.53632779138873        0.00162230575548
C           -3.04120403215136       -0.78976295791501        0.00095958819168
H           -3.81769432601123       -1.54565944746116        0.00055819999001
H           -4.57029328854987        0.61740396176362        0.00164164610777
H           -3.47763777573687        2.62732410784725        0.00268724956688
H           -1.13816045302630        3.05664256873238        0.00295969224257
C            0.93452185054834        0.94353677651789        0.00195836876879
N            1.94569106982832        1.72666467188147        0.00237100677646
C            3.20082549029827        1.19725735732597        0.00217144849630
C            3.62727812864969       -0.10955119947738        0.00159170774674
C            2.91740766487882       -1.34228028022341        0.00098668906866
N            1.62637001144592       -1.58579427341418        0.00078643697504
C            0.76916095480324       -0.58161661726006        0.00120419628798
H            3.52685008504270       -2.23976203027620        0.00061868631408
H            4.70497504706839       -0.23270597525542        0.00158909618015
H            3.96220455488146        1.96913137297520        0.00255565440879
H           -0.51185008185412       -2.89011993875648        0.00000370197591
H           -2.21281502278795       -3.27591361960210       -0.00020681715550
