37
 energy: -71.316395841323 gnorm: 0.000545064852 xtb: 6.6.1 (8d0f1dd)
N           -5.00727337716754       -3.17149218228914        0.24722424855151
C           -4.24557122599470       -2.31212970041319        0.17717172798430
C           -3.29906731126215       -1.27184103200488        0.09092016982484
C           -1.92161856324683       -1.67674411918512        0.09868045384110
N           -1.69294069664071       -2.99552357334247        0.21053999303870
H           -0.76785497775151       -3.38795121145239        0.17504638084463
H           -2.47841310114222       -3.62640222744359        0.24109047123560
C           -0.88361569081368       -0.75158122403285        0.01919041222296
C           -0.88317308951698        0.75185658525225       -0.02071226092285
C           -1.92068177328531        1.67764194629820       -0.09981292333679
N           -1.69129120322729        2.99631999082534       -0.21140288681829
H           -2.47642191193944        3.62763665107236       -0.24176405041889
H           -0.76597002893324        3.38824401366055       -0.17632346278748
C           -3.29834946822477        1.27351283167927       -0.09176261295253
C           -4.24430034037033        2.31428977966343       -0.17822248824712
N           -5.00558029218660        3.17408671176923       -0.24761683647865
C           -3.84787629281497        0.00098926217906       -0.00034870380240
H           -4.93485746114782        0.00130349387849       -0.00021132436943
C            0.52557838637069        0.75424875055253       -0.00112387974425
C            0.52515084788699       -0.75481994625246       -0.00043887733049
C            1.58646655616098       -1.63978386267192       -0.07558661760419
C            1.32834275459153       -3.02133839597082       -0.14159594605137
N            1.15576962888073       -4.15921462403726       -0.19094011923516
C            2.96948591612949       -1.29369291402027       -0.11447184800003
N            3.84117732762987       -2.32504929295915       -0.26838291260784
H            4.83280630612213       -2.16133801249044       -0.26140439761042
H            3.50844884977478       -3.27249185809505       -0.30621585426751
C            3.53420212239440       -0.00115844186116       -0.00041047687925
C            4.94894995485490       -0.00169254386554        0.00073060521394
N            6.09916726079840       -0.00183883329514       -0.00048956644118
C            2.97020332813174        1.29173313452080        0.11327081114896
N            3.84248398159789        2.32256494540171        0.26742898627754
H            3.51032408338186        3.27021479640019        0.30496239102885
H            4.83401208802252        2.15821037858747        0.26077140753544
C            1.58740149604283        1.63865932130984        0.07385194268264
C            1.32986771855147        3.02038777703109        0.13791930848188
N            1.15861321804350        4.15830720990031        0.19144996339306
