28
 energy: -46.616893805551 gnorm: 0.000934198299 xtb: 6.6.1 (8d0f1dd)
N            4.36786748111634        1.87188494618876        0.00559025231971
C            3.46334825613133        1.15500806082340        0.00405336369511
C            2.35238160448316        0.29912585943064        0.00169853335339
C            1.09269169694845        0.96292211029848        0.00280177802142
C           -0.11798148760838        0.28204445263631        0.00089678375708
C           -0.41990648631677       -1.16066694892420        0.00264407409274
C            0.39985214734958       -2.25674982042531        0.00096601141097
C            1.78631176939604       -2.20509559006555       -0.00247400681449
C            2.64848287027685       -1.09689569536906       -0.00202514673099
N            3.97278790092209       -1.40208231604455        0.00072763608550
H            4.27085934145165       -2.36011321351774       -0.01932643052915
H            4.66888465943345       -0.67683591820015       -0.01495795878796
H            2.29613400736926       -3.16101001950871       -0.00499748391916
H           -0.05812673090808       -3.23782849923840        0.00122648687359
C           -1.81575774646412       -0.87742796856360        0.00287483358513
C           -1.49727428202616        0.59293935270251       -0.00039768774903
C           -2.36594820608868        1.65339022178504       -0.00840714198342
C           -3.75959248107507        1.51103332492569       -0.01033540575871
N           -4.54454666606877        0.44782282727794       -0.00313153747914
C           -4.25308958320349       -0.83041873622084        0.00474666434307
C           -3.01691664754619       -1.51382679698786        0.00578082707075
H           -3.04674927063180       -2.59664419595792        0.00955639052341
H           -5.14234795561703       -1.45644834939258        0.01016687805229
H           -4.33169109601186        2.43600938861287       -0.01859931353576
H           -1.98471869713145        2.66908820812231       -0.01526199453187
N            1.08422630411880        2.31483725418702       -0.00020886695841
H            0.20904118481288        2.80407694711682        0.02261017315660
H            1.94370790178789        2.83652607730879        0.01923291063718
