29
 energy: -51.938192534498 gnorm: 0.000514485588 xtb: 6.6.1 (8d0f1dd)
N           -5.20480609246172       -0.78598761389125       -0.00097856985291
C           -4.06732759221469       -0.62149685617168        0.00143124672365
C           -2.66939997455875       -0.40864292711780        0.00100900330498
C           -1.92995937287450       -1.63883009240801        0.00142472628077
C           -0.58194766765246       -1.85724562559245        0.00153812470483
C           -0.10565919681507       -3.18672684746344        0.00251638026388
N            0.30410969887780       -4.25859453572954        0.00209406002784
C            0.39236100864160       -0.81746486357294        0.00162226249711
C            0.18742841158822        0.62096203106518        0.00157645760048
C           -0.90304111583187        1.42161337559343        0.00125296742839
C           -0.71363287682997        2.82044394058907        0.00163193452138
N           -0.57253896697331        3.96032691857660        0.00020677062057
C           -2.28069740042074        0.92711839940036        0.00091948405925
N           -3.23068334269651        1.88894406416661        0.00066055427655
H           -4.20506079035150        1.63648804398480        0.00049465414695
H           -2.97479077933644        2.86165291701929        0.00065824284394
C            1.65641261886186        0.80321572276036        0.00186614013452
C            1.77945250509855       -0.66296904061749        0.00181846687960
C            2.94042212949418       -1.46493154822713        0.00192686348671
C            4.20126024916525       -0.96393896248444        0.00204101019806
C            4.64548142233426        0.40740676018714        0.00210844403495
C            3.96742053471758        1.57885942187695        0.00219067007099
C            2.54302537366212        1.80412437709934        0.00212936358371
H            2.20297189078718        2.83057908993063        0.00231049252033
H            4.56168801389931        2.48355006091339        0.00227396455722
H            5.72564209526281        0.49776379988360        0.00212198372662
H            5.00900143766159       -1.68445577160116        0.00209340850886
H            2.79719330409040       -2.53779104610940        0.00193499867715
H           -2.56211421132511       -2.51954556225987        0.00163701137366
