32
 energy: -59.114396665078 gnorm: 0.000771191749 xtb: 6.6.1 (8d0f1dd)
N            6.13566109123484        0.61708510454047        0.04746700610805
C            5.00069661665366        0.44128787674530        0.02341966172511
C            3.60271874504249        0.21442116335434        0.00568946994902
C            2.86445687073940        1.40219607989161       -0.01913115818985
C            1.47846270874789        1.59262618938005       -0.02654805255360
C            0.99884540082207        2.92400017144598       -0.03956300234593
N            0.60179795599494        3.99995777986964       -0.05112254289853
C            0.55656598822237        0.56345783811582       -0.02198527566947
C            0.76421222183907       -0.92027374321630       -0.00859192577439
C            1.90466827409774       -1.66349853570178        0.02545133379057
C            3.21991880903246       -1.15297131993099        0.02807269478964
N            4.22451244758863       -2.07821721493266        0.01646782976792
H            4.00976546957015       -3.04585128362825        0.17464595753118
H            5.17935990900274       -1.78183045759164        0.12465742508046
H            1.82259704920693       -2.74476414887410        0.05713487986475
C           -0.64476875624321       -1.10295335692636       -0.00733220424293
C           -0.83871695570752        0.36910753724073       -0.01463956566510
C           -1.98767414446860        1.12168402041158       -0.03960913232813
C           -3.26698004776506        0.57362466224279       -0.01804163156104
C           -4.34105258499937        1.47713264445204       -0.04194671349294
N           -5.24061631611011        2.19629545866804       -0.06296915036879
C           -3.63035063063188       -0.83355519931825        0.05561669652650
N           -4.95227732516511       -1.07138016739576        0.18007762575301
H           -5.62001241530999       -0.31946053630477        0.20732218969588
H           -5.25790058492572       -2.02759094469561        0.22781563705758
N           -2.92264794116911       -1.93796097230269        0.00222622916921
C           -1.58944398791290       -2.10972007496278       -0.05482355591060
N           -1.22596132544251       -3.41435581295280       -0.11762921829385
H           -0.27699346805322       -3.66314797580359       -0.32699016388779
H           -1.95600169195080       -4.09175682482971       -0.25233827825518
H           -1.90430300068186        2.20145921778845       -0.07201902901064
H            3.46178206044931        2.30705122151537       -0.02775196376489
