23
 energy: -35.204448503789 gnorm: 0.000782493481 xtb: 6.6.1 (8d0f1dd)
C            3.67004984364415       -0.00370219839023        0.00061375255045
C            3.13006265021691        1.26170175892972        0.00044648676494
C            1.76856548281687        1.64663884804904        0.00060039248234
C            0.73738343622299        0.77016360122160        0.00094386335053
C            0.70453812269170       -0.72191576702134        0.00131404635785
C            1.74549193557007       -1.63096213330868        0.00135937891349
C            3.08314038298250       -1.28467325739340        0.00101418402097
H            3.78821650431215       -2.10617935270035        0.00105623363446
H            1.49545460398912       -2.68529957013298        0.00165723069728
C           -0.70043355974948       -0.70872733775454        0.00155874078009
C           -0.70055627407888        0.78762424785527        0.00121270475522
C           -1.73436830226355        1.65608119307212        0.00106253393637
C           -3.08954072591844        1.22782266276156        0.00145905675129
C           -3.58933217968046       -0.05489137422435        0.00200420063016
N           -3.05371097893267       -1.28663055219431        0.00201782969956
C           -1.77316981795458       -1.58204392717293        0.00174307712203
H           -1.57202048706431       -2.65156903474415        0.00172063617753
H           -4.67623710215308       -0.12177426610547        0.00244674934925
H           -3.82998458624359        2.01729754030264        0.00140339992071
H           -1.54533034880521        2.72266395307424        0.00067420038253
H            1.55529466907870        2.70894741847545        0.00045343447396
H            3.84040043670467        2.07878932501788        0.00015521222143
H            4.75483638411444       -0.02659369071679        0.00041175292760
