30
 energy: -55.664234509261 gnorm: 0.000559780065 xtb: 6.6.1 (8d0f1dd)
N           -5.08337689123748       -2.25741373841895        0.00016023417195
C           -4.25569711905888       -1.45650136391362        0.00104994494304
C           -3.26683262758933       -0.45961701603294        0.00106005821353
C           -1.94527116146964       -0.89697419961128        0.00052595331694
C           -0.86540107585842       -0.04681643204660        0.00074948790721
C           -0.83191237124145        1.44477966646602        0.00160988198293
C           -1.84722166098596        2.34907941733822        0.00239066404609
N           -3.15719217335806        2.08830004234618        0.00244449535923
C           -3.75991129027590        0.91310055487613        0.00183336978804
N           -5.10030136188106        1.03363535226777        0.00200974834406
H           -5.70522597492534        0.22894234472869        0.00163465873599
H           -5.48389152595245        1.96377431513683        0.00254488604020
H           -1.62691390835605        3.41243802679390        0.00311284912745
C            0.59664071514948        1.40334177913221        0.00140698757819
C            0.54023694872927       -0.08893297423806        0.00049003246742
C            1.54783897730216       -1.04221771632991       -0.00028688623973
C            1.14879486391598       -2.39784610454027       -0.00136658479619
N            0.83064484880159       -3.50106368046624       -0.00099909882449
C            2.93415815072655       -0.76698953366443       -0.00031917396995
N            3.78097687472976       -1.82983394250374       -0.00156721978824
H            4.77666239882996       -1.69413844229523       -0.00098955691642
H            3.41353662722537       -2.76547820374328       -0.00167329427440
C            3.52696219488760        0.53592576921923        0.00068074258652
C            4.94562512059061        0.53315497932304        0.00064333398111
N            6.09361749609590        0.54171322540436        0.00105220827150
C            2.99439548477316        1.81987965350306        0.00158811825820
C            1.65899194846023        2.25067772951932        0.00188634120878
H            1.48169108268647        3.31769218060966        0.00255217542430
H            3.73842270762146        2.60817180208272        0.00214719524452
H           -1.77367371103545       -1.96700702754278       -0.00007968308776
