30
 energy: -54.864929106722 gnorm: 0.000770256550 xtb: 6.6.1 (8d0f1dd)
N            5.30724057604542        0.18730788764832       -0.03057620089345
C            4.15730915315575        0.23755866097365       -0.00561973070135
C            2.74808214172342        0.31731744935013        0.01898678529209
C            2.25729648120499        1.62850731332040       -0.01606781399498
C            0.88598276215685        2.04423670104512       -0.01375545457254
C           -0.16683003083163        1.21492508459457        0.01021438174014
C           -0.29818689099044       -0.26071643136049        0.07391674854573
C            0.72399926271715       -1.23317801560669        0.10791739061698
C            0.31811237685055       -2.57373265006091        0.16380638776130
N           -0.04992681694008       -3.66621958322124        0.18758070409550
C            2.09777901073981       -0.96783890957236        0.07940265707790
N            2.93227489188814       -2.04329586882619        0.12452067692103
H            2.54759772364525       -2.97168524124094        0.13405238091014
H            3.92847128988389       -1.92972210743939        0.06636332920432
C           -1.68293887474390       -0.16215138220750        0.11973633895308
C           -1.61705964230144        1.32029504391159        0.02494442068504
C           -2.58783125021954        2.24112366568425       -0.13235766773077
N           -3.90771184823221        2.00553048020361        0.08900759049678
C           -4.44705746864789        0.84542208249556        0.26869696059273
N           -4.08883894350897       -0.42389715185396        0.02716973548956
C           -2.87974761087962       -0.92716635058159       -0.07121543751625
N           -2.80413590139512       -2.22520616234162       -0.40541057210984
H           -1.94570846172129       -2.74774056141433       -0.33254260271384
H           -3.67129577605836       -2.71903351494849       -0.53514685519957
H           -5.47831843558331        0.90090130213969        0.61906235714068
H           -2.35463070402133        3.27854711846328       -0.34433229421597
H            0.71104947565185        3.11260973706928       -0.03934871749199
N            3.15304161921556        2.64488755132484       -0.06236486940840
H            4.14241446551067        2.46480371548229       -0.06610793908694
H            2.83344487298566        3.59595300966959       -0.08394006908664
