32
 energy: -54.314504833283 gnorm: 0.000932041235 xtb: 6.6.1 (8d0f1dd)
N            3.59938136406142        2.88277217008426        0.03962331034386
C            3.29088961990393        1.77431170837824        0.02676568898410
C            2.91970733399800        0.41426556679424        0.01256225763977
C            1.58128202808174        0.06786400787919        0.00095655966153
C            0.96880185964346       -1.31221386751060       -0.01223312181846
C            1.54885873498925       -2.54624010770876       -0.02950014737526
C            2.92799343487735       -2.78867701197923       -0.02506134762551
C            3.97770001507801       -1.88196021288041       -0.00467018277494
C            3.99528961080922       -0.49460241959365        0.01243787663821
H            4.97691876671185       -0.03558110954188        0.02569714039170
H            4.96289777560783       -2.33510593253386       -0.00307325891136
H            3.21635832310188       -3.83238604525835       -0.03931248640472
H            0.91439059706742       -3.42588854312395       -0.05105647176075
C           -0.31726326651983       -0.71232360406134       -0.01186207719465
C            0.28671212142420        0.62950122286650       -0.00325606167715
C           -0.32405637415775        1.88977066666549       -0.00925277044933
N            0.43007109896564        3.01044342764703       -0.00695623595456
H           -0.01053143087454        3.91251380541251       -0.01247473548545
H            1.43464608001116        2.97031330342231        0.00243377822997
C           -1.71573962101556        2.05458928003280       -0.02015080847197
C           -2.76853148592498        1.14264066980056       -0.01478844238679
N           -4.01309387192084        1.69496384328612       -0.02300573139688
H           -4.83106291963708        1.11173425054930       -0.01540097125403
H           -4.12729884408173        2.69108754619627       -0.02794417360378
C           -2.74884332772530       -0.28374419429656        0.00106310291170
C           -4.00022990933282       -0.91455679653605        0.02589665326006
N           -5.02259098831690       -1.44931462871415        0.05253030769291
C           -1.63277328212824       -1.15871114248889       -0.00444429681356
N           -1.87214336402045       -2.49330791554601       -0.01798803526883
H           -2.81344008236631       -2.83989873787517        0.04529999942660
H           -1.10595973427912       -3.13412052132600        0.05580478608909
H           -2.03698683413095        3.09129962385986       -0.03061941414163
