25
 energy: -43.442473030017 gnorm: 0.000345896783 xtb: 6.6.1 (8d0f1dd)
N           -1.69291614642821       -3.26367022960453       -0.00068827218757
C           -1.58694987216805       -2.11924443661859       -0.00171731460513
C           -1.51574837186835       -0.71330623709310       -0.00108066884019
C           -0.32315832191988       -0.08372650257234       -0.00078423328276
C            0.05507123524224        1.33333212701984       -0.00046540616936
C           -0.78854450755052        2.46194386066930       -0.00054006517185
C           -2.14910444086691        2.38013573863413       -0.00083080235144
N           -2.99199037343827        1.32126346186774       -0.00104226234184
C           -2.79119798959990        0.04743086119485       -0.00116851013348
N           -3.90611657389843       -0.71933806336636       -0.00154167999673
H           -3.85779633035949       -1.72295263514088       -0.00117090881918
H           -4.79676469575809       -0.25454940603431       -0.00135356933170
H           -2.70805642661147        3.31068285739164       -0.00088019725412
H           -0.32938571624045        3.44094764074887       -0.00034535741020
C            1.40861326554282        1.00520950146204       -0.00010288553135
C            1.10485721531048       -0.44381048332090       -0.00041573960920
C            1.87214755916945       -1.53872499412865       -0.00007276900325
N            3.25196187618720       -1.55072900771106       -0.00040985305909
C            4.02756324959865       -0.53312332699261        0.00017079300505
C            3.83810471834275        0.90695100113301        0.00151581327592
C            2.67764732887002        1.61455438445055        0.00109787940488
H            2.71921164338236        2.69711880472437        0.00177381283774
H            4.76432628294199        1.46647079394754        0.00249845596963
H            5.07916480725393       -0.81819432993496       -0.00054756704175
H            1.43902090686611       -2.53193804682561        0.00006811844699
