25
 energy: -42.667188487568 gnorm: 0.000872127888 xtb: 6.6.1 (8d0f1dd)
N            4.41501601870050        0.35400218232027        0.00188104494036
C            3.06422486969203        0.31581180825447       -0.00016560392674
N            2.60624570686610       -0.94483265760164       -0.00165923211091
C            1.33809100885076       -1.33452279312955       -0.00211358497851
N            1.11409702551837       -2.65960346627544       -0.00345001632282
H            0.16451634552644       -2.99022044894112       -0.00420530817785
H            1.89015993580622       -3.29679780511175       -0.00465959724437
C            0.22724562211547       -0.47352801353074       -0.00126233456231
C            0.19547370175324        0.99972832986066       -0.00077889120942
C           -1.23639000449179        0.97663465008560       -0.00153466593038
C           -1.16658426436525       -0.53746879515676       -0.00210796947785
N           -2.06353982234709       -1.49721393370840       -0.00312332917434
C           -3.35325009550342       -1.23588510366526       -0.00393048529252
C           -4.06368449936881       -0.01403509606205       -0.00398807854747
C           -3.63736635322409        1.29543497383216       -0.00316520213033
C           -2.31292361904966        1.79590745284005       -0.00198781371555
H           -2.18056006611232        2.87101587930761       -0.00150395707390
H           -4.41778193343362        2.04724464130063       -0.00349877896017
H           -5.14031954572775       -0.14612991610433       -0.00485982057369
H           -3.96404820465259       -2.13372362461535       -0.00472758570522
C            1.24961946400665        1.87041195732748       -0.00083421871465
N            2.53797353028395        1.54326208509390       -0.00041315523060
H            1.07593480642921        2.94271359886204       -0.00122186319299
H            4.93282502036611       -0.50542282412767        0.00035466333034
H            4.87367637566137        1.24671926864519        0.00128665848189
