30
 energy: -56.456469541667 gnorm: 0.000932922450 xtb: 6.6.1 (8d0f1dd)
N           -4.95097498452553       -2.53237664805547       -0.00013188675098
C           -4.04839172012120       -1.82353289498199        0.00231614391203
C           -2.94487094168740       -0.93968430411974        0.00069223053712
C           -1.68978854456005       -1.51593355581654        0.00001321064017
C           -0.50587892305762       -0.78808350103537       -0.00045899274064
C           -0.28697584643319        0.68386758693477       -0.00039063237121
C           -1.10780132756302        1.73455727863917        0.00008531290822
C           -2.55613088094254        1.59119390112229        0.00071092931922
C           -3.26547020972576        2.81522036966089        0.00007649430125
N           -3.82661041297210        3.81590617439026        0.00292013158869
C           -3.30829513610787        0.45165155559337        0.00100430739369
H           -4.38313300263012        0.60945562482942        0.00152281450528
H           -0.71952269208834        2.74462839684167       -0.00009019923350
C            1.15676138895890        0.41777701203356       -0.00111578444468
C            0.87455591334651       -1.01797416157734       -0.00115525947295
C            1.78370650867234       -2.09823365586801       -0.00155875100455
C            1.24564218277463       -3.40439713557223        0.00017148193202
N            0.79338873400717       -4.45878085146357       -0.00312839987362
C            3.15591966472987       -1.94834792603412       -0.00224347698057
C            3.94180834128142       -0.78107650035923       -0.00258468529748
C            3.63429195736736        0.56721787549370       -0.00222624295663
N            4.65405800943714        1.46125608266260       -0.00252989704398
H            4.47275755760584        2.45006591454871       -0.00205792275918
H            5.60654709845483        1.14383327952428       -0.00283033076895
C            2.29713604174953        1.14704915784725       -0.00146683875975
C            2.19531245100326        2.55800023089734        0.00040279045779
N            2.13575331104223        3.70387091731604       -0.00277908661783
H            5.00820581988594       -0.97879952997514       -0.00299331853942
H            3.72456509520122       -2.87009988811856       -0.00237671011485
H           -1.62434829700305       -2.59753876535843       -0.00002603376536
