29
 energy: -51.149620409893 gnorm: 0.000662898602 xtb: 6.6.1 (8d0f1dd)
N           -4.82589484340350       -1.57082642609187       -0.00067505057252
C           -3.88672504183885       -0.90541128819699        0.00190623359156
C           -2.72810089922754       -0.10449877196450       -0.00001548023090
C           -2.98621917870349        1.27736946981800       -0.00041776312069
C           -2.18620933810723        2.39522449899031       -0.00103800192690
C           -0.77559730653010        2.45537893113556       -0.00136504484877
N           -0.14295426798171        3.64331100058684       -0.00168822194707
H            0.86438622247181        3.64465580057944       -0.00217821258948
H           -0.65260150297688        4.50839125048300       -0.00225915807225
C            0.01283170393215        1.30863286396620       -0.00126195097631
C            1.39834242756368        1.06761122110663       -0.00170388743899
N            2.46128489323735        1.80832880140782       -0.00236401667556
C            3.68799723915813        1.28877285582030       -0.00274044718583
C            4.12228842785288       -0.03834786990744       -0.00248762382086
C            3.42982320621232       -1.23980880140956       -0.00177950320354
C            2.03403290808258       -1.45778167040748       -0.00114525863451
C            1.59075861847477       -2.79699839643155       -0.00035428334657
N            1.19179179300107       -3.87543429879528       -0.00014119983474
C            1.11154595788828       -0.43461751311611       -0.00116565197322
C           -0.26785571120179       -0.13894503595974       -0.00077843941043
C           -1.49051697504626       -0.81692403174786       -0.00020313876362
N           -1.53150053186546       -2.16012224338739        0.00030572535906
H           -0.68885645863533       -2.71193866459117        0.00023924614106
H           -2.42059052088089       -2.63312421703647        0.00071716561912
H            4.03424903275751       -2.13903974890902       -0.00169864584463
H            5.20128055919681       -0.14456908175090       -0.00290911666948
H            4.46126403115766        2.04924511238596       -0.00332630234508
H           -2.69568237943502        3.35029599955685       -0.00115725695156
H           -4.05024793645297        1.49483142676642       -0.00011181272730
