27
 energy: -46.891313141578 gnorm: 0.000701948664 xtb: 6.6.1 (8d0f1dd)
N            2.33889268006718        3.51940796619629       -0.04712862308393
C            2.28834049568348        2.37299026476907       -0.03104757362453
C            2.25144790557447        0.96111474510986       -0.01298907919244
C            1.05251783842708        0.31378045652907       -0.00310155954371
C            0.74448607243685       -1.16146876547286        0.01191955390426
C            1.62922988548051       -2.22006971759872        0.06500573510578
C            3.00983598475641       -2.07264467014615        0.08327874407650
N            3.79398578797755       -0.99537964696119        0.03079199940825
C            3.51160030362350        0.26829788301807       -0.01688112597838
H            4.38984843497301        0.90798863008949       -0.06099672212834
H            3.59464711888755       -2.98681114618536        0.13958808050706
H            1.24437797655406       -3.23351893234870        0.10301719862349
C           -0.62397305154299       -0.86724382354560        0.00173148351195
C           -0.34952937033605        0.58371481968959       -0.00718964485675
C           -1.18691536865468        1.66515197500209       -0.04005448085236
N           -2.51088417331122        1.65002101750577       -0.01210864068631
C           -3.30228284155696        0.57584443909794        0.01916185498416
N           -4.60591780346602        0.94352374445221        0.08091870123505
H           -5.35005975159545        0.27546336795751        0.15983914135298
H           -4.80407563263835        1.92698673791832        0.13707318382445
C           -3.06582660036492       -0.81878406195061       -0.03245354657549
C           -1.86689427575918       -1.52352091032809       -0.03739502654235
N           -1.88814021864489       -2.87880046853173       -0.04898323627078
H           -2.75248143332805       -3.37231628838281       -0.18309546997488
H           -1.02723609064556       -3.38255996020798       -0.15631445259740
H           -3.96449996567475       -1.42529428137208       -0.04955756804346
H           -0.76096477972257        2.66351213959668       -0.08172654128293
