31
 energy: -49.783392305319 gnorm: 0.000589009073 xtb: 6.6.1 (8d0f1dd)
N           -4.38056244445785       -2.23173278259303        0.13296860782679
C           -3.56788099523311       -1.41251273510019        0.06469187446759
C           -2.56824219091899       -0.43562216046968        0.00423924240828
C           -1.23394781558752       -0.94365484899488        0.02488679154489
N           -1.07506188040996       -2.29502359485127        0.03154458237763
H           -0.16456152310010       -2.66803228502997        0.22579310809158
H           -1.87600517810057       -2.88622847778533        0.17927348633138
C           -0.11743453085642       -0.13076926400018        0.00603579924456
C            0.01190446028198        1.34339334723343        0.01418687212962
C           -0.92936540593438        2.33136704205361       -0.01818702874296
C           -2.30348828230621        2.11567992928510       -0.06436299897103
C           -3.02494060214360        0.91530032177480       -0.06278708142852
N           -4.37828971313655        1.05722545493474       -0.14131468776738
H           -4.97881419829036        0.25400924229444       -0.07159369153655
H           -4.78925914071182        1.97171948492699       -0.10081933560742
H           -2.92104271172544        3.00515616125406       -0.10649087012729
H           -0.59334186627061        3.36102998111805       -0.01435087905510
C            1.43090020317673        1.22336450927254        0.04065387470476
C            1.29488684946898       -0.26646007922168        0.01827564276840
C            2.25272334642162       -1.24120009075531       -0.02131415041978
C            3.63847157018667       -1.01216702690190       -0.01230294437911
N            4.44654551597551       -2.14056783345709        0.01081121392520
H            5.40951808329416       -2.01279437093409       -0.25491628168758
H            4.03520993710634       -2.99798330133720       -0.32069449289962
C            4.30412005138461        0.22468823543197        0.04420777753543
C            3.85050088175000        1.52903475456605        0.08472375786525
C            2.53573497643595        2.01732487677944        0.07374575340251
H            2.40364944677299        3.09220112540375        0.09380691346328
H            4.62676493965710        2.28346788584436        0.12031759145457
H            5.38561352788435        0.12638406247384        0.05471638252857
H            1.94678551188667       -2.28172372951538       -0.07042167514816
