29
 energy: -50.344949173569 gnorm: 0.000774656695 xtb: 6.6.1 (8d0f1dd)
N           -1.14402332289230       -3.85272526226929        0.06099771415611
C           -1.42247768587749       -2.73508523481160        0.05177271019605
C           -1.72570403572645       -1.36376568969430        0.03730443532162
C           -0.66948389920128       -0.42939552351355        0.00606450441187
C           -0.79210641659058        1.06133261959312        0.01572673044564
C            0.65430758502941        1.14532638595458        0.00355724586276
C            0.71491146612014       -0.33032605639504       -0.01046797603650
C            1.88156745302946       -1.14392774079914       -0.04670639355148
N            1.74695688756649       -2.48641606856824       -0.09152523152068
H            2.56157590420193       -3.07348717843517       -0.10628668788352
H            0.84086453284412       -2.92376759642668       -0.06660672434100
C            3.14761487057760       -0.58730965657742       -0.04306179257608
C            3.57121529810799        0.77402241401963       -0.00319357332015
N            4.92219514567685        0.94461544758986       -0.01169759829466
H            5.55212387594013        0.17472218432257        0.12008266701915
H            5.26091700794830        1.88444137126765        0.09521805420024
N            2.93721402620427        1.93237946135088        0.01378978065707
C            1.60773826284147        2.10615933213292        0.00524081048379
H            1.31588141149509        3.15205735802335        0.01218143185932
H            3.96503139061541       -1.29999732126650       -0.07122623645670
C           -1.85671089108042        1.87631348337795        0.02089180532203
C           -3.21783092631061        1.38943543679500        0.01172613016569
N           -4.18405687096563        2.34819698527988        0.01070350134114
H           -3.95839779193526        3.31038267490047       -0.16280551379892
H           -5.13705041363358        2.04237883026403       -0.08006423435832
N           -3.68845794370192        0.16877157187097        0.03463596557253
C           -3.06978634510403       -1.01069650084156        0.06271451739668
H           -3.77973947430352       -1.83308269615766        0.09896869843130
H           -1.71803194557547        2.95023384251329        0.02480851719509
