23
 energy: -43.216138274035 gnorm: 0.000515195595 xtb: 6.6.1 (8d0f1dd)
N            4.12871857143455        1.31288592709801       -0.01745584872736
C            3.02899865010176        0.53824081089916        0.00947478738421
N            1.87067182050437        1.29718836505377       -0.00238221726548
C            0.75066821702535        0.68519352785794        0.03862012011866
C            0.36774162633544       -0.77924539825044        0.15550141181480
N            1.10211138708374       -1.89216854193364        0.17294777731364
C            2.40169564287087       -1.79117116594653        0.08662858151882
N            3.24245156808598       -0.75235022062289        0.03201922149937
H            2.92374263188155       -2.74445383208639        0.06949631557666
C           -0.96291672449385       -0.42768620786876        0.23229846496875
C           -0.65510502347808        1.01589861818575        0.05682003848986
C           -1.50901307198812        2.02519932196756       -0.24032195442199
N           -2.84033273858646        1.95246133110264       -0.02471769519085
C           -3.54380874351267        0.89900503422378        0.22820205207124
N           -3.37770543248361       -0.41804482965209        0.02389960825062
C           -2.23397578531912       -1.05585722272482        0.01908187020809
N           -2.22608432726111       -2.37373614826373       -0.22056069861820
H           -1.35405173156786       -2.87454082437900       -0.17709790651368
H           -3.08163831968426       -2.84211598226891       -0.46475526402932
H           -4.54690534380968        1.12262667781271        0.59191691995001
H           -1.15493391413041        2.99385925465417       -0.56996180664184
H            4.02277810649062        2.31122099201275       -0.03362933973724
H            5.03485882680047        0.88060042662868       -0.01333847911922
