29
 energy: -50.343283299559 gnorm: 0.000621609772 xtb: 6.6.1 (8d0f1dd)
N            4.76791095317811        2.11815755537329       -0.04834762131386
C            3.89780551290261        1.36370583203704       -0.02039384251612
C            2.80869387204412        0.47828308659487        0.00447506633003
C            3.13696955372401       -0.87361813951938        0.01403113380740
N            2.46558063154795       -2.00912981832106        0.04269649849374
C            1.13787883897882       -2.16494330927790        0.04017934694199
N            0.74122244028201       -3.45381084038123        0.08398898146006
H           -0.23159123007947       -3.69634833511569        0.10953595274153
H            1.44893251768832       -4.16522426935278        0.13628301269451
C            0.18446837740501       -1.14317473330295       -0.00880993701141
C            0.36643931264173        0.32714995760886       -0.00780552502422
C           -1.05663797844674        0.49526792281783       -0.02082250939469
C           -1.21200046550234       -0.99818520979346       -0.03336343489991
C           -2.37067620632047       -1.74366189270071       -0.08264093110011
C           -3.64221652206869       -1.18385045707776       -0.10389098080907
N           -4.06152405095332        0.07261699102370       -0.05264552437206
C           -3.39946531664870        1.20735822239439       -0.00471114257744
N           -4.21675183087003        2.30890605857817       -0.01004828078978
H           -5.19658942729196        2.12339851138894        0.12344941239131
H           -3.86492533614740        3.19305980194016        0.31251269734585
C           -1.99243735017930        1.47009144856365       -0.00328481690484
H           -1.70070017307735        2.51425003225888        0.02071195929435
H           -4.47638832654776       -1.87903080048285       -0.15488718628204
H           -2.31012586746789       -2.82539974169075       -0.11248867915942
C            1.49721577011618        1.09592102647047       -0.00067701761664
N            1.43972637120732        2.45160955484372        0.02475261303979
H            0.55754467886911        2.90828262527012       -0.11350701727829
H            2.28602043613552        2.98535544068167       -0.08026702499021
H            4.21070161628138       -1.06129177152967        0.00174517449956
