27
 energy: -51.697178346972 gnorm: 0.000609683659 xtb: 6.6.1 (8d0f1dd)
N           -5.73610506603330       -1.47626221879719       -0.01370093751112
C           -4.70960922873303       -0.95905042819838       -0.00814485364683
C           -3.46499764947922       -0.30099765109174       -0.00258307157178
C           -2.33257739320839       -1.06991775075456       -0.00110057687980
C           -1.04291395494215       -0.51915973696345        0.00321531791320
C           -0.65720672537134        0.90924872390124        0.00276993619826
C           -1.35688411223054        2.04518847064761        0.00123818062487
N           -2.74185924938659        2.13121372354202        0.00784327435410
C           -3.57658792435955        1.17625076577059        0.00663692885337
H           -4.61374795789705        1.50877978152775        0.01499706234144
H           -0.87443637981292        3.01410544029207       -0.00172176691386
C            0.75002489338083        0.47143290794189        0.00191543884374
C            0.29258634578406       -0.92526836255527        0.00261427647472
N            0.94486823392285       -2.08763319729584        0.00233269819082
C            2.25252519496406       -2.13417012017078        0.00066029048399
N            2.79351332074873       -3.36918544138017        0.00123318616351
H            3.79101121745025       -3.47315522468645       -0.00099168712077
H            2.18422548486543       -4.16660994004120        0.00220083735892
N            3.22171091633835       -1.16960197769782       -0.00183656929529
C            3.17415466051553        0.12020760026954       -0.00269979226327
N            4.36140278115065        0.75365433455708       -0.00566117951643
H            4.42096484794772        1.75777936643778       -0.00633769512518
H            5.19996967342506        0.19930168468760       -0.00698410388070
C            1.98913403942902        1.00891414713280       -0.00077747758367
C            2.19833989519335        2.40076779780110       -0.00208378863881
N            2.42030052136565        3.52806914221981       -0.00332917307370
H           -2.42680088982744       -2.14893937839606       -0.00405030287974
