31
 energy: -55.380882014857 gnorm: 0.000837201188 xtb: 6.6.1 (8d0f1dd)
N            5.10925244219127        0.00223137737434       -0.00011996373599
C            3.95747969960622       -0.00753678760731       -0.00270485203076
C            2.54704988005974        0.00393398598169       -0.00085333266850
C            1.95746968737912       -1.33148427741220       -0.00053222165794
N            2.85571684688760       -2.35063559983807       -0.00048954022850
H            2.52216046013512       -3.29913502094223       -0.00071542241339
H            3.84500214327117       -2.17747395135737       -0.00128828530157
C            0.61048223092884       -1.66076649593941       -0.00030497089045
C            0.25121256090976       -3.01841054253083       -0.00090626997252
N           -0.03290835557208       -4.13384490620642        0.00056106719163
C           -0.45117762559329       -0.71296260229330       -0.00013329837802
C           -0.41213455824773        0.72298023623315       -0.00013399190273
C            0.58892748292394        1.63896643848008       -0.00032604840243
C            0.25729707541141        3.00861877881586       -0.00009136016424
N            0.00943874242844        4.13100232214665       -0.00064350720238
C            2.00413264270652        1.28514732701093       -0.00070279082026
N            2.84080623913394        2.34578282081508       -0.00110744294734
H            3.83831552634571        2.21297260863859       -0.00140337627175
H            2.47120832258462        3.28152269967223       -0.00104388596928
C           -1.89902764928670        0.74997623270916        0.00010552649546
C           -1.85506545325665       -0.71302647869638        0.00009696490544
C           -2.91912758098107       -1.64362837851588        0.00029652949359
C           -4.22611541825124       -1.28804445574235        0.00055308482149
C           -4.82528673563634        0.02870657139342        0.00063920230837
C           -4.28120982115797        1.26463790842214        0.00049066006759
C           -2.88671928666506        1.64915063244151        0.00023749813974
H           -2.66273286938059        2.70634672058320        0.00015324706752
H           -4.97081116948843        2.09928922029430        0.00057819540592
H           -5.90859003009473       -0.00500142270120        0.00085396588920
H           -4.94914198560648       -2.09376652642422        0.00071293031706
H           -2.65448944678509       -2.69306067590509        0.00026613875506
