27
 energy: -46.089931013417 gnorm: 0.000793031074 xtb: 6.6.1 (8d0f1dd)
N           -5.11239210307559       -0.07795014544074        0.02682989764118
C           -3.75279929768422       -0.07187353616087       -0.00686857443976
N           -3.23383435616349       -1.25953505587167        0.01623799996147
C           -1.90350194868408       -1.57792524217401       -0.01109899116125
C           -0.87696915704844       -0.71493987771260       -0.00069604801601
C           -0.81746538809520        0.76942787133961       -0.01738526202858
C            0.56672487650690        0.76665789188006       -0.01010663274174
N            1.54320718880750        1.67820575838800        0.00355152562282
C            2.79893355571274        1.30127531074741        0.00634350876511
N            3.69635376658516        2.33602962521385       -0.05055485475132
H            4.64208958562450        2.18498264336428        0.25292916576482
H            3.30443659340117        3.25018857436571        0.10166802680645
C            3.37822593939173       -0.01294783150892        0.00330061814298
C            2.81273886215058       -1.26504628488132        0.00856313347979
N            3.61645570519000       -2.36840882506878        0.05540273991855
H            4.59172553079169       -2.28906430099933       -0.17041402742144
H            3.16107514289390       -3.24993586630161       -0.10631896191236
N            1.48263876251609       -1.63290834551319        0.01707615528751
C            0.57982760370228       -0.73030050384380        0.00610101641256
H            4.46390425369340       -0.00968293605822       -0.00438040389715
C           -1.89775911738483        1.67199225425971       -0.07690884176094
C           -3.19463138954982        1.28619713468631       -0.09020401074737
H           -3.95002490552835        2.06012537220011       -0.14807211487716
H           -1.66280724296423        2.72806828782470       -0.12296517398258
H           -1.72777588454623       -2.64733517689094       -0.01801007696571
H           -5.56515285109094       -0.96622077192463        0.15635641817190
H           -5.64040134895232        0.76670748768088        0.15012975992817
