30
 energy: -45.246150823794 gnorm: 0.000717256886 xtb: 6.6.1 (8d0f1dd)
N           -3.76421193450327       -2.22154602798352       -0.03201186634388
C           -2.80342989005735       -1.22119458076622       -0.03725248983389
C           -1.44466485590953       -1.69912656306731        0.00713198086786
C           -0.37292428938478       -0.89992377313378        0.02528095268647
C           -0.20464160670153        0.57571605138906        0.01312263297891
C           -1.18819821469401        1.56705621415522        0.06408997371289
C           -2.54386942453816        1.33142136175165        0.06411132203593
N           -3.39009629866527        2.44334801431186        0.05205933568685
H           -2.97016331120032        3.30188593171924        0.37347325875065
H           -4.31435856058556        2.29346213706851        0.42552855692734
C           -3.22818853593362        0.07932084791313       -0.01458591867697
H           -4.30823170316103        0.19526128901437       -0.05183366159381
H           -0.87134972989261        2.60292507071317        0.12521793633028
C            1.18119137991178        0.43904988865615        0.01360776151466
C            1.08141600931141       -1.03611122502465        0.04356016916474
C            1.99110234672255       -2.02181888398994        0.09061192732350
C            3.40287689197138       -1.79172889914752        0.11937442536442
C            4.06453486008537       -0.60116564671833        0.07293083718069
C            3.62093135569893        0.74240945560295       -0.02362390571858
C            2.33876683806919        1.25162913701919       -0.05065560135802
N            2.15233014954559        2.61025339096706       -0.09814399419108
H            1.24783730731002        2.93319354657383       -0.39502768766134
H            2.93843744432344        3.18074275714527       -0.36285826059403
H            4.41551736725847        1.47854415383188       -0.07841929201689
H            5.14679259566210       -0.68262017452100        0.10006216247959
H            4.01349022580145       -2.68355454845872        0.18335619355290
H            1.65987637960999       -3.05267966007529        0.11744746673248
H           -1.31320519752573       -2.77476822624251        0.01579682876260
H           -3.47266364776643       -3.12183809995037       -0.37648595150031
H           -4.69547713816271       -1.95385278925334       -0.30755804176394
