31
 energy: -53.787146223518 gnorm: 0.000644797567 xtb: 6.6.1 (8d0f1dd)
N            4.81075244980879        1.77009409075472       -0.03076662007757
C            3.85131092280963        1.12723914914673       -0.01684047368039
C            2.67209109334898        0.37322841108318       -0.00725467828089
C            1.47466049665067        1.13912611123954       -0.00973153285617
C            0.21498066837773        0.55599092407813       -0.00955138801868
C           -0.23410689103742       -0.85000045759158       -0.01850419809556
C            0.48697949352108       -2.04110199931607       -0.01400198480709
N           -0.21872277974773       -3.19852006060934       -0.05769060571770
H           -1.21766289244947       -3.13106441830949        0.03769364645502
H            0.23172767130063       -4.08158709468013        0.10154369024513
C            1.88610390722065       -2.07753018632939        0.00235739193678
C            2.83051387207247       -1.04813443192706        0.00551003366183
N            4.12721859674741       -1.46461940815228        0.04576375731971
H            4.87504996374643       -0.79576028396128       -0.01860929805659
H            4.34691546554315       -2.44089948151571       -0.02627188624417
H            2.31427644703666       -3.07453058885849        0.01291851513734
C           -1.57700700289958       -0.45608787292152       -0.00583151443885
N           -2.74710330290728       -1.03230034487473       -0.00970001109947
C           -3.85829375310257       -0.28144802918005        0.00901200713552
N           -5.01062429033852       -1.02765402507463        0.06949800279240
H           -5.88000161981731       -0.59723914377217       -0.19230002838765
H           -4.90764053831767       -2.00774420736988       -0.13120426487727
C           -4.00149369516324        1.12421350294642        0.02362938241886
C           -3.07770853689729        2.15729206806244        0.02763388474457
N           -1.73929994377693        2.15073688286203        0.01680680199616
C           -1.11285821211594        1.01033135706382        0.00368039692069
H           -3.48556434478340        3.16300366676402        0.03908133522346
H           -5.03671210399843        1.45064637367476        0.03621029563951
N            1.53666386394965        2.48713275759862       -0.01473681816966
H            0.67013292769590        2.99793265421469       -0.00552577685873
H            2.41781560232287        2.97032501595461        0.00078039283941
