30
 energy: -54.866448259143 gnorm: 0.000724061179 xtb: 6.6.1 (8d0f1dd)
N           -5.31431976280126       -1.45832228887541        0.03135125731113
C           -4.19872889202191       -1.18238452594492        0.01043819368135
C           -2.82461553983999       -0.84918246191285       -0.00502818463878
C           -1.99430588246803       -1.99870422322255       -0.00263069535627
N           -0.68986428493799       -2.13941639253952       -0.00697956889904
C            0.12018343234044       -1.10984578855144       -0.00984831384828
C           -0.07642628399026        0.41037108162639       -0.00826883270645
C           -1.24264003066855        1.13046655827472       -0.01154377490262
C           -1.16636112390459        2.53593023058276       -0.00488165517309
N           -1.05976847795860        3.68207992584185        0.00735385694569
C           -2.54749730616576        0.53219852726010       -0.01639562707222
N           -3.60305480450816        1.39343831273845       -0.05936264632168
H           -3.45345482876400        2.38337649219929        0.02781859664808
H           -4.54099911412056        1.03806445763981        0.01085652177747
C            1.33162843393579        0.55493717393251       -0.00518596355619
C            1.49360804108532       -0.91982799816708       -0.00803777671101
C            2.63803463443162       -1.74913911180654       -0.00535251593505
N            2.42635819068586       -3.07477255235191       -0.00535189573084
H            3.21439703278169       -3.69837839751597       -0.00283349805855
H            1.48135709167093       -3.42111259165287       -0.00732597485835
N            3.89839114977326       -1.34490595653275       -0.00245720185593
C            4.30588707257908       -0.07393909846005       -0.00106810607019
C            3.70051356640389        1.15967011461764        0.00005745328417
C            2.32021295721769        1.52724826772593       -0.00132599382412
N            2.02992918217335        2.84283771836812        0.00192308612072
H            1.07982670792157        3.17525794860388       -0.00077520533910
H            2.77367341357134        3.51839996803513        0.00209276413338
H            4.38163387865904        2.00228294368864        0.00224475769591
H            5.39393413951196       -0.03483240423018       -0.00004987086592
H           -2.52971380319322       -2.94311948577120        0.00479212582582
