28
 energy: -52.209322956303 gnorm: 0.000756809448 xtb: 6.6.1 (8d0f1dd)
N            5.00502348563255        2.60893403947866        0.00262095654993
C            4.06913793649265        1.94423568969800        0.00023895725736
C            2.91938092686070        1.12230504991645        0.00049961631034
C            1.69955195769563        1.76497894667185       -0.00083923186909
C            0.47305866555782        1.10593369005529       -0.00158383360994
C            0.17305184035804       -0.34919074153109       -0.00112236235950
C            0.93354444104108       -1.44497679840756        0.00009173778235
C            2.38965304413917       -1.38344156015947        0.00130914744500
C            3.02859196817976       -2.64571189460905        0.00263021030891
N            3.53477048533690       -3.67542544275333        0.00285025122221
C            3.20492221288510       -0.29028233131534        0.00145420964739
H            4.26934596771564       -0.50761432613603        0.00236111493869
H            0.48938699147982       -2.43170674002308        0.00016860278574
C           -1.25384824179963       -0.01540334270588       -0.00255506164409
C           -0.88903424863554        1.41929471763292       -0.00290093225426
N           -1.61506920589167        2.53352051009018       -0.00405319723053
C           -2.91338087682076        2.50604494567010       -0.00510874081219
C           -3.85475690527250        1.43972443313813       -0.00533884996184
C           -3.71475376146013        0.06761375678570       -0.00460279113259
N           -4.82486110076417       -0.70874807473802       -0.00511280586925
H           -5.73641195890165       -0.28762747181149       -0.00609874066951
H           -4.75360795462342       -1.71161710351989       -0.00455244452954
C           -2.44302494338409       -0.65620071733528       -0.00324125612200
C           -2.47988378804610       -2.06875079370584       -0.00290467148950
N           -2.52678763967604       -3.21554783794789       -0.00137413916389
H           -4.88556033270791        1.77697655489397       -0.00638815060605
H           -3.35861524216507        3.49581382278473       -0.00611543554398
H            1.68934258637378        2.84768877548337       -0.00144495538015
