27
 energy: -46.903595960883 gnorm: 0.000470385758 xtb: 6.6.1 (8d0f1dd)
N           -4.79268031641655       -2.50482631190172        0.00563891392042
C           -3.95722390846140       -1.71439776153936        0.00429004860795
C           -2.92613272838613       -0.75522723375505        0.00246136198771
C           -1.59198343018881       -1.29530076543977        0.00608285503725
C           -0.49742210292296       -0.51994201562432        0.00576749962179
C           -0.31801454397692        0.94118218989459        0.00345257269252
C            1.06070109769506        0.82677965635466        0.00798915234502
N            2.09890721694809        1.66701066735328        0.01373551924565
C            3.31839603696010        1.21703189298581        0.01729225915938
N            3.86482222437937       -0.01318800145023        0.00583673772790
C            3.32446553404665       -1.19863788170780       -0.00286027772466
N            4.21341292155194       -2.21934676607016       -0.01568476296095
H            5.19229938446407       -1.99238519092916       -0.03199073914750
H            3.92140999759698       -3.17877656005456       -0.04431645870927
C            1.91837164241645       -1.59780200222329        0.00296635919392
C            0.95933915586636       -0.66934400785325        0.00843167697436
H            1.69432682438266       -2.65710438857668       -0.00088412032416
H            4.07931317791294        1.99370515942458        0.02725248960477
C           -1.25902588869800        2.00292724458677       -0.00334154688062
N           -0.73887414135597        3.24480858509435       -0.00717739839127
H            0.26361266072217        3.34153767104677       -0.00232512562745
H           -1.32607762091494        4.05968606124736       -0.01026681966679
C           -2.63048762860954        1.78420856277909       -0.00645716272870
C           -3.32960660102662        0.56924509544001       -0.00323376736149
H           -4.40867586331122        0.69228577147225       -0.00583496009570
H           -3.24854606978426        2.67380730797461       -0.01181133604547
H           -1.50248881658949       -2.37405867932881        0.00960505124541
