30
 energy: -49.257334789068 gnorm: 0.000718735124 xtb: 6.6.1 (8d0f1dd)
N           -4.75985860548520       -0.58253964568882        0.05148854071402
C           -3.40038747097886       -0.37670281255837        0.01248930008488
C           -2.63073509917314       -1.53997231803836        0.01220475080878
C           -1.23481080314088       -1.68505616486215        0.04148947712706
N           -0.68721876106628       -2.92732914476792        0.10667212170552
H            0.31100191095931       -2.98568844180643       -0.00960907202725
H           -1.24735066242445       -3.73927103937026       -0.08253697666573
C           -0.36548642913801       -0.60490624356971        0.03427020768984
C           -0.57756825244190        0.85821938009058        0.00638249954377
C           -1.77250514190275        1.58531142246413        0.02424814685964
N           -1.69727739358044        2.94996003473719       -0.02173163053113
H           -2.51553476386253        3.48854259236700        0.20512571902140
H           -0.80513973639085        3.36840332851789        0.17498978196499
C           -3.02701345262475        0.98402876918207        0.03145433806230
H           -3.86338901202038        1.67548076497005        0.04538810453456
C            0.80252338601829        1.09761523579413       -0.02120358398426
C            1.02706579113447       -0.41823444257387        0.01084430889679
N            2.07619763762109       -1.17899452654544        0.01131949943946
C            3.31536319247851       -0.64327499211209       -0.02691243929625
N            4.30929426921225       -1.59400000559653       -0.08602949383214
H            4.06224898792486       -2.51690504727585        0.22810258683941
H            5.23632812963813       -1.26535761965781        0.12421749438594
N            3.76447581021306        0.59789830302442       -0.05627028876789
C            3.12757606957023        1.75651533561166       -0.08357371760743
C            1.76572391149851        2.07267618172448       -0.07201090731980
H            1.49846428873368        3.12424509978053       -0.10808928801751
H            3.82039060736866        2.59543765263827       -0.11531006170624
H           -3.19254907106827       -2.46759163054709        0.00289928162627
H           -5.10868775231815       -1.50183510986643       -0.15762885987861
H           -5.36858671565421        0.18519340093474       -0.17250465966996
