35
 energy: -61.473491072721 gnorm: 0.000991018965 xtb: 6.6.1 (8d0f1dd)
N           -1.18888321973593       -4.15527768105960        0.18184273703495
C           -1.35801463281116       -3.01776050934202        0.08168167475990
C           -1.59092582099241       -1.63810696076268       -0.00497295141780
C           -0.50321418975791       -0.77319107790526       -0.03902220074694
C           -0.46894054868195        0.74461598530310       -0.03414161771649
C            0.93392986977898        0.70163742372143       -0.02588482118555
C            0.89387949795858       -0.79627664756275       -0.03141128656057
C            1.95895553357679       -1.70978262137938       -0.06536123436239
N            1.72395122990796       -3.03871460143142       -0.18217076169185
H            2.49499224585568       -3.67847232152339       -0.10929340210370
H            0.79432847148903       -3.41283572833388       -0.10105841141445
C            3.29168958039812       -1.29482379049728       -0.00988730422965
C            3.83785546087741       -0.00452762906469        0.06633609997933
N            5.19068021481520        0.05364977420294        0.23921241776765
H            5.61755349167363        0.95997716424026        0.16343755300573
H            5.76010006960678       -0.76330987605432        0.11525535003373
N            3.31498650165829        1.21542499348561        0.00307362708076
C            2.03169454327116        1.56885494567098       -0.07140990689567
N            1.86966915385487        2.90093732644282       -0.22777952379944
H            0.97019511751135        3.34502863550858       -0.16092286315046
H            2.70114711466204        3.46348035740257       -0.17731605205283
H            4.02363588676934       -2.09465454092236       -0.00248759358543
C           -1.50581592500040        1.65880762704843        0.00575843834705
C           -1.20396582780627        3.02558607678408        0.09869232736309
N           -0.97840238432451        4.15212553098312        0.20158006359372
C           -2.89345661002518        1.32641009544715       -0.02293845277914
N           -3.77023672730275        2.38706820407654       -0.09037678001052
H           -4.73925064671757        2.21589145262782        0.11354377001361
H           -3.42431090543723        3.30770476162728        0.12208956252498
C           -3.46502697244173        0.05987828689189       -0.03947235046784
C           -2.95392036789724       -1.23830884777792       -0.03117156059809
N           -3.88852613411798       -2.24888125558037       -0.10534702146040
H           -3.59119964483101       -3.18846639947359        0.09792717772478
H           -4.84491190109801       -2.02772628091089        0.10992700499859
H           -4.55130994278509        0.08535457941578       -0.06548278879859
