27
 energy: -51.690063347467 gnorm: 0.000507619996 xtb: 6.6.1 (8d0f1dd)
N           -0.53376328695983       -4.15172905737410        0.16797981432216
C           -0.73997843483225       -3.02123966830796        0.12535908337777
C           -1.02310541622193       -1.64542461549024        0.06966947495380
C            0.04279970208606       -0.74127801703240        0.05903333325701
C            0.01646354987649        0.74461925891969        0.01740798083129
C            1.45674192969077        0.76468414133241        0.03543574425626
C            1.43655239870914       -0.73939148561979        0.11293552851478
C            2.51788264936844       -1.56208065662836       -0.23312563870682
N            3.75452713821340       -1.17781059552699       -0.21191353464029
C            4.20785788465095        0.02421065035317        0.20620778811308
N            3.78208893457000        1.22632100774791        0.04311420381468
C            2.49794883475480        1.59133125236082       -0.20621451463261
H            2.36035030118794        2.63342574644701       -0.46789508370372
H            5.19203975090084       -0.04901770675082        0.66827700648395
H            2.33097669082838       -2.57433286747806       -0.58078098891585
C           -1.01684198152493        1.62582506646910        0.02432271957243
C           -0.75874845397459        3.01240040158155        0.03247760551832
N           -0.58646110737882        4.14780264135720        0.03425346013148
C           -2.41093498257787        1.19169279109991        0.02376479915833
N           -3.33266227061890        2.17854475746565        0.03560780204262
H           -3.06317274186781        3.14703278871372        0.03976933498393
H           -4.30462597399686        1.92460785636896        0.02907232212918
N           -2.90617437369368       -0.01252876971059        0.01043004631827
C           -2.37697475730620       -1.24199152208149        0.01738373223334
N           -3.32737858651365       -2.20624390438405       -0.03111144836488
H           -4.29164527128933       -1.92742847305658       -0.02967695317156
H           -3.07894040137516       -3.17903521467338        0.00987238002366
