25
 energy: -49.030064965388 gnorm: 0.000846404965 xtb: 6.6.1 (8d0f1dd)
N            5.97795627073323        0.07967095393345       -0.05830532107388
C            4.83702230899875       -0.02010055072495       -0.03411379934042
C            3.42108001498850       -0.14551092827318       -0.01597818553169
C            2.97113887570654       -1.48300668720368       -0.04807495084762
N            1.75015990716028       -1.98276210015781        0.04243045981441
C            0.68387957093001       -1.24989266520241        0.02354980842185
C            0.43389480035708        0.24593492900912       -0.03956673379164
C            1.34563936993480        1.27720483635067        0.05642406071616
C            0.85858500468890        2.60351064520493        0.17565912468625
N            0.44122936440977        3.66698400887884        0.26294309487671
C            2.73555622993273        1.07209347668072        0.05792441365691
H            3.35158928077777        1.96163187179062        0.11897201260715
C           -0.95477515436923        0.01015234770183        0.02499598113674
C           -0.71034007173343       -1.46720526761323        0.10154846492487
C           -1.64259906035374       -2.46179959624012       -0.07609359591573
N           -2.93042360875491       -2.29368554268201        0.14840286601837
C           -3.65795974351960       -1.22653681965318        0.27513278753922
C           -3.39189937814017        0.12129699824849       -0.08754947229481
C           -4.51401905615982        0.96578731081679       -0.22278558954999
N           -5.43290276734805        1.64220611399473       -0.34515570068116
C           -2.12005810256213        0.70858808244118       -0.17812593235583
H           -2.06578307832561        1.77500095216903       -0.36443649162690
H           -4.65501105251865       -1.42410672145583        0.66070860187947
H           -1.34488464651257       -3.46274560668743       -0.36471559608703
H            3.74225332277864       -2.24302578982692       -0.11167967658236
