24
 energy: -38.916203213278 gnorm: 0.000649606061 xtb: 6.6.1 (8d0f1dd)
N            4.00605272281319        1.56217386237273        0.07054550528965
C            2.96067102233044        0.68294661410420        0.01716150273169
C            1.64818781425986        1.28977363786650        0.01874099790293
C            0.52515165262369        0.56290406747090        0.01521176534938
C            0.27997607592757       -0.91295561134857        0.00009093421030
N            1.10149517339016       -1.95892220596854       -0.00368959627371
C            2.39241743782020       -1.81420272397976        0.00663964115235
C            3.23517607789366       -0.66762660279682        0.01230593246718
H            4.29262372432384       -0.91162488234015        0.01318464212132
H            2.92564054784177       -2.76055024978955        0.00359222296911
C           -1.09582449460153       -0.71587691989549       -0.01045145328217
C           -0.92167919647446        0.75967109189862        0.00829502329912
C           -1.82143881676132        1.75127532729905        0.02434276974791
C           -3.23943406481981        1.49211662228903        0.00378459567704
C           -3.89036318659738        0.29939049963757       -0.02381123263767
N           -3.50490251680032       -1.01273216811906       -0.01384121064461
C           -2.29029238887682       -1.45938452712432       -0.00611715890450
H           -2.20418335759485       -2.54311918051950        0.00877980830373
H           -4.97655026706617        0.35719721826142       -0.05060544158396
H           -3.86572478356039        2.37526428507010        0.00322301889010
H           -1.50603185117466        2.78642472236556        0.04474111660116
H            1.60827746947794        2.37293954764898        0.02436207443073
H            3.84236283040752        2.53512404985049       -0.11803928991205
H            4.94030214221786        1.21879611754661       -0.06912142330504
