28
 energy: -46.619044521419 gnorm: 0.000789240699 xtb: 6.6.1 (8d0f1dd)
N            5.67347686628388        0.52386735834008        0.01454689304626
C            4.52721556394556        0.42725494895563       -0.00295713287866
C            3.12031488680164        0.30812882035041       -0.01267563777895
C            2.46388019680387        1.57808761402737       -0.01211458254123
C            1.13233299963128        1.88265846330164       -0.00787848488024
C            0.11122489623647        0.93070103602203       -0.00147507320396
C            0.21302205065526       -0.55033423179860       -0.00168870978346
C            1.25463556051878       -1.39846800397311       -0.01061165491596
C            2.63214276056441       -1.00189537095002       -0.01698660479591
N            3.52958535458248       -2.02788748032752       -0.06094751481465
H            3.21442660937961       -2.97168979322395        0.06984810441612
H            4.51346064191378       -1.83709774994368        0.02244396057110
H            1.06703776239684       -2.46597153474119       -0.01472276286435
C           -1.23924707367785       -0.62503273740693        0.00541415546297
C           -1.27995824025577        0.85871822217661        0.00546909562268
C           -2.40620514075319        1.68656868103440        0.02326980042211
C           -3.68514783505605        1.21858492831989        0.03007336383830
C           -4.15487453030546       -0.15779378396160        0.00985341179592
N           -5.50756990823316       -0.26817804204189        0.00501489815168
H           -5.90100543429282       -1.19146086837873       -0.04661377889710
H           -6.10712915259817        0.53332752623719       -0.06279685711148
N           -3.55446832524011       -1.31903366992321        0.00840117190045
C           -2.21839036630118       -1.54863300749656        0.01603803654736
H           -1.97845273555036       -2.60739845837791        0.02457991794501
H           -4.48256180532770        1.95119393889261        0.04629198387762
H           -2.25136436481671        2.75905940178062        0.03272725987037
H            0.85005429942236        2.92786196451033       -0.00778329479738
H            3.15453943477234        2.41342116939605       -0.01242586830464
