26
 energy: -47.970816942456 gnorm: 0.000706899928 xtb: 6.6.1 (8d0f1dd)
N           -5.29172150703954       -0.66783819539744        0.00011598327687
C           -4.22054408289974       -0.24923148923196       -0.00103803766614
C           -2.89173920369948        0.21532891100248       -0.00016520703557
C           -1.88460457906970       -0.79048059875795        0.00098750285285
N           -2.20576599175521       -2.08910111209020        0.00180142649185
H           -3.16874014057002       -2.38473347150925        0.00186210167031
H           -1.46239710514774       -2.76922667951054        0.00232292525496
C           -0.53166212421194       -0.43455840898819        0.00099159746150
C            0.11733640485044        0.89449882474724        0.00081337932169
C           -0.41951840654720        2.14572206545773        0.00074865015334
N           -1.72529517517360        2.45081833623372       -0.00096525369856
C           -2.73509721340628        1.62133428363513       -0.00177990790000
H           -3.68620986501783        2.15342970437036       -0.00401164373092
H            0.23108559032809        3.01440591921145        0.00188866904841
C            1.40599944652554        0.26088658273790        0.00198453963355
C            0.70660302479312       -1.07970375344425        0.00221763458354
N            1.11785159419077       -2.32731506827136        0.00313924846375
C            2.39078209731957       -2.64250556276118        0.00429326495429
C            3.55982215811209       -1.83555337088777        0.00486227467657
C            3.73625928440518       -0.47674128373973        0.00424731028459
C            2.73526755606594        0.54664830508616        0.00280736255436
C            3.16825485540029        1.89527763046110        0.00188141800189
N            3.51609854111507        2.98762084276661        0.00270604430487
H            4.75721417275678       -0.11481686829115        0.00486693121860
H            4.47616595004345       -2.41454572173661        0.00589411015466
H            2.56256612093199       -3.71352512769225        0.00493398996876
