28
 energy: -46.616227221918 gnorm: 0.000705257309 xtb: 6.6.1 (8d0f1dd)
N            2.30019519133132        3.12828456005307        0.04139898491647
C            2.09382071968994        1.99873684488807        0.04321798686469
C            1.85509846766129        0.60524972730545        0.02937386471019
C            0.56782973469206        0.18038430736887        0.00735779434375
C           -0.05639943372822       -1.17100000082776       -0.03292619924344
C            0.56786161517254       -2.41316351627371       -0.08807977935082
C            1.93023108875309       -2.59441860164341       -0.08274043428003
C            2.97795672406698       -1.65268786769763       -0.02520825766598
C            3.00528586546251       -0.27486480277882        0.03175705957107
N            4.22561765730109        0.34613661696385        0.15008796235712
H            4.28378027153822        1.33720547147728       -0.01107427401316
H            5.05458702637385       -0.19267489408514       -0.02936338001711
H            3.96587812688284       -2.10266855053625       -0.02390132368222
H            2.26923098877244       -3.62183466079293       -0.13108825702294
H           -0.05334487055459       -3.29889785438131       -0.14903773930123
C           -1.32950427953984       -0.59579257379962       -0.04169263865478
C           -0.75554232225849        0.76837920606115       -0.00384382295799
C           -1.33726503811720        1.98547495874020        0.02044618999331
C           -2.74871999493383        2.15307842484428       -0.03160521355250
C           -3.72106914553616        1.18650685322178       -0.08607447308555
N           -3.73198249541686       -0.15515198520480       -0.03142596545277
C           -2.69536544877064       -0.96749945032429        0.00651499521394
N           -3.00451222684786       -2.28304326590510        0.07660158932121
H           -2.28914070280523       -2.96713425614554        0.24045986723702
H           -3.97165017647800       -2.52929992770227        0.19869403934934
H           -4.74087209986462        1.55997468230747       -0.16183414171371
H           -3.10024910842811        3.17577172681153       -0.04924793069333
H           -0.72089838861847        2.87429748185556        0.05798453940953
