34
 energy: -57.750579411380 gnorm: 0.000922938125 xtb: 6.6.1 (8d0f1dd)
N            1.01670720251266        4.07813625966158        0.13239953253206
C            1.41318368041632        2.99793617669200        0.10068257580558
C            1.92131918063187        1.68530910605482        0.06445243046274
C            1.06206703270591        0.59953379075952        0.03512769300454
C            1.42002626553628       -0.86485235961166        0.01701801043225
C            0.03664983754824       -1.18074484097642        0.01805254574253
C           -0.30513732837324        0.25770283057618        0.01907590305322
C           -1.54493778020859        0.90188590785494       -0.01290339824620
N           -1.60014898003107        2.24944437739222       -0.02955897352294
H           -0.76387054250081        2.80706742588690        0.00263728683115
H           -2.49204136327499        2.71453266128066       -0.04632608372536
C           -2.77713129596449        0.19538958081030       -0.04317642381568
C           -3.91824916379704        1.00667887785951       -0.10824778472104
N           -4.85568901667697        1.67798608931155       -0.16961693140543
C           -3.03358046111280       -1.21185403495444       -0.01168545192476
N           -4.35568723944411       -1.54775105416227        0.00367090633925
H           -5.05803359680408       -0.83777575844991       -0.10828995622835
H           -4.62847769627970       -2.50974321060609       -0.07464581294100
C           -2.15143567214078       -2.28457952982113        0.03908946968725
C           -0.74918437403128       -2.31867045607071        0.05234365964539
N           -0.14684235843596       -3.55072062925214        0.04923796331783
H           -0.70909386213613       -4.34583171242497        0.30240702372702
H            0.81899177801211       -3.58855441510542        0.32261539978472
H           -2.62937062720218       -3.25812140915366        0.06847041623446
C            2.61948411817674       -1.50387119040449       -0.03579110205463
C            3.88487951077812       -0.88059145284447       -0.04053524964834
N            4.98022834138056       -1.72724892682718       -0.03102613793065
H            4.83640147300937       -2.66671136278989       -0.36308817253530
H            5.86927331260568       -1.32542703097326       -0.27991179277332
C            4.15376343931547        0.49083195423279        0.01403152792266
C            3.32660804903537        1.59712521510943        0.06464782819052
H            3.83640804214410        2.55293818434178        0.09808094918902
H            5.21282845021823        0.72834505515029        0.01392518128016
H            2.63290556798709       -2.58777246394732       -0.08833998630969
