31
 energy: -54.586768657463 gnorm: 0.000835944601 xtb: 6.6.1 (8d0f1dd)
N            5.28002454577875        1.29583083391535        0.06428859678024
C            4.25674141563544        0.76149192300437        0.04188999828898
C            3.00001302406846        0.14127529832279        0.01627656946453
C            1.90379364790507        1.03305603681064        0.01754330838210
N            2.14615637022991        2.36238231401770        0.03919096865870
H            3.08890701942101        2.71238880233891        0.06329437093572
H            1.37640723364725        3.00563159511943        0.05127871051577
C            0.57331000357923        0.60126319435386       -0.00365972504682
C            0.00618946322690       -0.76497198022847       -0.01193083220531
C            0.58649954592411       -1.99557723777305       -0.02110509329613
C            1.96611113283894       -2.21450646982314       -0.02382066967861
C            3.01703346210842       -1.29950370028264       -0.00847638452949
N            4.26377057569889       -1.84133541667014       -0.01438103960456
H            5.08065378316946       -1.25554673198069       -0.00625623078578
H            4.37905915823240       -2.83807821948301       -0.03185565991154
H            2.27610966185304       -3.25198542049625       -0.03863822955093
H           -0.05528767078343       -2.86709399611332       -0.02985513809283
C           -1.30946920747113       -0.20794982210938       -0.00972672705452
C           -0.71090516869054        1.16888861601332       -0.01002085979093
C           -1.36718921043646        2.38359228229130       -0.04674682046188
C           -2.74943776981450        2.50698406818743       -0.06708880925679
N           -3.72843441111517        1.61009299716390       -0.02561873272385
C           -3.72500840782052        0.30263085103213        0.02358337393308
N           -4.96381773252509       -0.25226675538711        0.11894999983681
H           -5.09554510490691       -1.24590098908073        0.05558160396933
H           -5.75365237772864        0.36534557202173        0.06526388595693
C           -2.60638294758152       -0.62417055114348        0.00359679358039
C           -2.89252834721452       -2.00387387132389       -0.00098826556140
N           -3.15793683287547       -3.12222091311849       -0.01164660743135
H           -3.14440343159785        3.51816594195175       -0.11804455326438
H           -0.79504941486310        3.30366480307484       -0.07124748665763
