31
 energy: -58.601531947792 gnorm: 0.000815594514 xtb: 6.6.1 (8d0f1dd)
N           -4.11419078285370       -2.91927393091902        0.01452662550089
C           -3.30113431263590       -2.10144779909878        0.01098428539981
C           -2.28171595305542       -1.13564930026513        0.00483441485272
C           -0.97028066508604       -1.67369484899011        0.00302891458604
C            0.16604545534966       -0.86563376364196       -0.00124303598622
C            0.34155981177642        0.60223846366888       -0.00194843581229
C           -0.56183493580693        1.64779023458744       -0.00263490181194
N           -0.08066657828225        2.90773554468769       -0.00455107530858
H           -0.69618366458021        3.70260223459302       -0.00599744217439
H            0.91696936587283        3.03231956065375       -0.00632752368041
C           -1.97524724711866        1.43404086986911       -0.00262909620926
C           -2.73251263655118        2.61604583911332       -0.00654448182436
N           -3.32354242955413        3.60633528680111       -0.01071035494659
C           -2.71578131439968        0.22577006498169        0.00097556139241
N           -4.06112459732306        0.38153281361573        0.00133449397782
H           -4.46548712372114        1.30268936775075       -0.00138130119487
H           -4.66702673172012       -0.42142173916368        0.00361523903948
C            1.74097553373256        0.45348536122939       -0.00345146852617
N            2.79779775071342        1.20641732411677        0.00144297374936
C            4.01186676678790        0.60226186954259        0.00207805925465
N            5.04693493258235        1.47176610113126        0.00049319208057
H            5.98172042004358        1.10950035498686        0.04238849072135
H            4.86792665870090        2.45736541970832        0.05519191454316
N            4.38215167036068       -0.67320048267295       -0.00631746524723
C            3.69269609050880       -1.79382839375478       -0.01412653533069
N            2.39195941868785       -2.06969842747153       -0.01005412098272
C            1.54597292325786       -1.06853190266065       -0.00448292143034
H            4.32208854816946       -2.68027476937336       -0.02292588074969
N           -0.78029688511499       -3.00553458787996        0.00571163484937
H           -1.55568388883341       -3.64613892811210        0.00967445321384
H            0.16627064339110       -3.34826091803367        0.00384515055392
