27
 energy: -46.890988434418 gnorm: 0.000552133849 xtb: 6.6.1 (8d0f1dd)
N           -1.23656822763314       -4.09877389279494       -0.01027866805384
C           -1.36192388130759       -2.95855511435049       -0.00218881580393
C           -1.53080600457096       -1.55462481745728        0.00672027635841
C           -0.45654372577179       -0.73100567615342        0.00168260453444
C           -0.38643073397082        0.77726694345712        0.00546930706798
N           -1.29568035401966        1.74168203915644       -0.00259204177821
C           -2.58411349381223        1.49759279772995        0.01113312376747
N           -3.37523622151110        2.61763236203628        0.07028383242918
H           -4.33882529633191        2.55440851418582       -0.20728039919138
H           -2.91032793616473        3.49454919514367       -0.09313324523716
C           -3.29984349346820        0.24269913911853        0.02717210524430
C           -2.87970199351203       -1.04719461260749        0.02337996005499
H           -3.64783654093713       -1.81143345382165        0.03465734891094
H           -4.37599964230549        0.37844942961419        0.04656989718041
C            0.99625887627846        0.72052588272528       -0.00401194733934
C            0.98691678124358       -0.76149239674061       -0.00908332186820
C            1.99670505733539       -1.66211375649646       -0.01155798374775
N            3.31984330496949       -1.38378665203912       -0.02890777281950
C            3.86529936790397       -0.19772425088424       -0.02749592581747
C            3.40589175890050        1.13435425103360       -0.00028342303794
C            2.09654129961859        1.60724479248994        0.00882335175181
N            1.81935592522902        2.92464861721807        0.02438625045183
H            2.55123319284191        3.61201764267322        0.05543478802379
H            0.85483755451816        3.20943466148721        0.04513003852969
H            4.18310816992370        1.88891820024203        0.00652659515346
H            4.95283838680602       -0.27208491349656       -0.05020405580271
H            1.77778237514810       -2.72533633736939       -0.00299265146143
