30
 energy: -50.056499342355 gnorm: 0.000910953141 xtb: 6.6.1 (8d0f1dd)
N           -2.30659191963290       -3.30813468310482       -0.06096442442074
C           -2.16782177262865       -2.16752724327175       -0.01814304436233
C           -2.04061647057347       -0.76533536375873        0.01449207584228
C           -0.80898016029419       -0.20154768140627        0.03293312159483
C           -0.36960214868396        1.23248814414739        0.04301705549867
C           -1.17046361944210        2.37009239285698        0.06585476376159
C           -2.54681672211968        2.33751165140711        0.05847243831780
N           -3.42298442057965        1.32296813152459        0.02042826135138
C           -3.26848871490402        0.03532752794307        0.00690262650174
N           -4.43313117978435       -0.67943629880164        0.02411824709596
H           -5.28403048194232       -0.15844851437814       -0.09505772967727
H           -4.43046872512174       -1.66374420167983       -0.17825983594740
H           -3.06178638508108        3.29403926819392        0.07811912855223
H           -0.70152423021295        3.34706617147487        0.09616808075735
C            0.96256562131516        0.82216233204361        0.03645988333466
C            0.57448827153943       -0.60229446409613        0.03394815617245
C            1.29163245645259       -1.75286277738352        0.04157178600776
C            2.69454290694706       -1.80951913025587        0.04570312641827
C            3.61264295362880       -0.76667535557455        0.03031573321897
N            4.93143591630461       -1.13482139057688        0.08395950450027
H            5.17313203618648       -2.10194082526930       -0.03906203780743
H            5.64670871570437       -0.45485913735526       -0.10083247374844
C            3.41285662272260        0.64364331301722       -0.00706739406405
C            2.25630084624483        1.39445414939575        0.00459725644238
N            2.33847389958796        2.75485741127874        0.01655390900697
H            3.22057857815895        3.20137860580093       -0.16367227825429
H            1.50306989687140        3.28418528703398       -0.15376722767684
H            4.33290652520040        1.21882904785297       -0.03412638122948
H            3.12492839661548       -2.80289795050513        0.06455008144559
H            0.75718188192085       -2.69448337525341        0.04417897006739
