30
 energy: -50.067242700933 gnorm: 0.000986358222 xtb: 6.6.1 (8d0f1dd)
N           -4.61039834033278       -2.30338605412549       -0.00686495798523
C           -3.78823956362123       -1.49531121019252       -0.01366089110555
C           -2.76041986366495       -0.54162321388391       -0.01868125015332
C           -1.43727473421859       -1.04748661442034        0.00022361150708
C           -0.32506502380686       -0.20621991490220       -0.00701087656688
C           -0.16515448374100        1.26483647371222       -0.01774591413364
C           -1.10136428378977        2.27010446546185       -0.02113091211591
N           -0.71168802026151        3.57732660459598       -0.05707912866839
H            0.25199962800708        3.79110669741118        0.12792904495019
H           -1.38997746527912        4.29322426806215        0.13761152482076
C           -2.50427851825081        2.00376805822372       -0.03788935130147
C           -3.17364961046079        0.81231495981789       -0.04000529732080
H           -4.25541503665617        0.90939107478822       -0.05478062289847
H           -3.12500539128210        2.89194195883548       -0.05241396005599
C            1.25444115731743        1.11959273546463       -0.00360047126492
C            1.06015993745139       -0.38639236832370        0.01319841667698
N            1.86222952233732       -1.42189145456324        0.01918917123325
C            3.18338234088840       -1.29680341127750        0.03054573101323
N            3.84964939206599       -2.49899731354434        0.12331776907640
H            3.28760365417899       -3.31648491108462       -0.04542890322074
H            4.80532480329871       -2.54349544400509       -0.18572231671473
C            3.99384960226110       -0.12796391530057        0.00890266742880
C            3.67841239544349        1.20797938244993       -0.02002711086408
C            2.40771659511844        1.82956433672019       -0.03044141264442
H            2.39460826543200        2.91340329668911       -0.06595026479578
H            4.52367499310063        1.88566905791409       -0.04020493961191
H            5.05590916294867       -0.35034309670180        0.01525853729823
N           -1.21108391250934       -2.37538647200098        0.02302178000930
H           -1.97385431497529       -3.02999307098245        0.04994628361862
H           -0.25556433789940       -2.68896172373776        0.05262119078945
