25
 energy: -42.651537226276 gnorm: 0.000505542918 xtb: 6.6.1 (8d0f1dd)
N           -4.32172092429456       -1.65738772143998       -0.07681114950706
C           -3.29335555735652       -0.75378598522977       -0.02411436111417
C           -1.97799792914674       -1.30320501437864       -0.02804045840064
C           -0.86600978654742       -0.53691903804561       -0.02569036784875
C           -0.69496973324541        0.96166429850788       -0.01430255009527
N           -1.54161525911297        1.96149142333514       -0.01267337234307
C           -2.84402751676817        1.76409898844486       -0.01825699792129
C           -3.62548214595749        0.60003927070010       -0.01914561231928
H           -4.69376836124855        0.79273361671909       -0.01782629914998
H           -3.40483389883952        2.69405628356395       -0.01598417626581
C            0.69992141018572        0.81298842958252       -0.00582872130397
C            0.56108764996031       -0.67161032852829       -0.01792201327570
C            1.53035725330144       -1.62017673244771       -0.01594770496866
N            2.85503912340414       -1.39930709084357       -0.00504021717876
C            3.45969928223325       -0.22276145847472        0.00814559929002
N            4.80432895885344       -0.32620418045382        0.01190857637529
H            5.22659768337128       -1.23734068533377        0.00209284577109
H            5.35478383626776        0.51367456640167        0.02174893573466
N            3.09144705811703        1.09059176466584        0.02222924221344
C            1.86617895263763        1.55650567339287        0.01558316581842
H            1.80197601919173        2.64119622585735        0.02921648135007
H            1.27472165619657       -2.67596470615618       -0.02463324790666
H           -1.89265207658213       -2.38411957471291       -0.03293192546471
H           -5.25919606830726       -1.33791900476245        0.09437238585877
H           -4.12886718821353       -2.62443284016389        0.11544039115210
