26
 energy: -42.373100188588 gnorm: 0.000762384537 xtb: 6.6.1 (8d0f1dd)
N           -4.08069866086510       -1.38695542312106        0.17768131790389
C           -3.04177728775855       -0.52798828581548        0.03701673297720
N           -1.83238243526144       -1.23016682835230        0.01107122807292
C           -0.73560964190575       -0.59330373720705       -0.00878801337741
C           -0.32824294445382        0.83799867160670       -0.01646873613960
C           -1.18358900628462        1.95249742475097       -0.08886632676129
C           -2.54319132719354        1.82179633009876       -0.11649857204177
N           -3.33719739733711        0.72706423404656       -0.04007339605430
H           -3.13798640331690        2.72653121206120       -0.19996704652062
H           -0.76677133693347        2.95113687065565       -0.15063087994572
C            1.01055670749366        0.46378743001687       -0.01128261708259
C            0.68715758095091       -0.96816718601113       -0.01637575273311
C            1.42307058836629       -2.09038449596325       -0.03101665077128
C            2.85457581028361       -2.08819001093304       -0.05009863723696
C            3.69625245685707       -1.01922164742084       -0.03318434710501
C            3.47012212990431        0.38524025603705        0.01439393750057
C            2.29219851477174        1.09265284469855        0.02326395132591
N            2.30609856984457        2.45729399765967        0.02389767979035
H            1.45189716808050        2.94012285883124        0.23801176980630
H            3.16923291521563        2.93572963331654        0.21701836619353
H            4.37273407650532        0.98532706599955        0.04224568655308
H            4.75178076019324       -1.26951532541813       -0.04908418537201
H            3.31557548541613       -3.06675700193013       -0.08115227866857
H            0.92254008597160       -3.04889285316198       -0.03646234832234
H           -3.89925233208691       -2.37138117647247        0.10646924588594
H           -5.01581121335745       -1.02945849427236        0.10640293662293
