30
 energy: -50.063898708599 gnorm: 0.000782257470 xtb: 6.6.1 (8d0f1dd)
N           -4.31873755268415       -2.77567017692559        0.01733439390593
C           -3.53360585616121       -1.93036755345576        0.00552118859538
C           -2.57878836610613       -0.90410026206708       -0.00587553872148
C           -1.23197213408898       -1.35198255814144        0.00057810997073
C           -0.15537865965501       -0.53541276155955       -0.00377185571542
C           -0.04813868689832        0.93361375205933       -0.01304692362239
C           -1.03430343552497        1.93490479212727       -0.02206489298158
N           -0.58970859119811        3.21000956754207       -0.03278912530227
H           -1.21972497512614        3.99097539562262       -0.01131304685147
H            0.40476657497375        3.36162891976012       -0.01152261256137
C           -2.39649051815674        1.65632908827149       -0.02450000021371
C           -3.08043516737044        0.42594333533752       -0.01726500250979
N           -4.43684731049838        0.53112737933266       -0.03071723020828
H           -4.88009658328283        1.43035662841285        0.00381757884710
H           -5.00838683583286       -0.29526897230043        0.00537536478138
H           -3.04523853031177        2.52631915923808       -0.03261257022479
C            1.34160089659506        0.87477470147492       -0.00286900711510
N            2.32646438720633        1.75462684801842       -0.00038218215322
C            3.58147006758418        1.36846356198776        0.00982032274337
C            4.18200053956156        0.09358793293874        0.01562789194231
C            3.65648538055333       -1.18935940589215        0.02100675778382
N            4.53727727356656       -2.24110680386970        0.08643898800394
H            4.20214909130058       -3.16160612825969       -0.13802530385138
H            5.51053925943146       -2.06277009472060       -0.09187044420633
C            2.26779953867480       -1.54989198274120        0.01825477926465
C            1.28620394695389       -0.63349053442593        0.00600639487169
H            2.03330478947891       -2.60817841456943        0.02727834515664
H            5.26720530965634        0.12893501179046        0.01950439620813
H            4.27751203345491        2.20236334641692        0.00814068849510
H           -1.08821516829534       -2.42581361500295        0.01077319676838
