29
 energy: -51.146752340803 gnorm: 0.000884831724 xtb: 6.6.1 (8d0f1dd)
N            5.92615754363790        0.67992419038435        0.01521989766036
C            4.77979432988516        0.64534332514858        0.01046535304695
C            3.36031489491892        0.60098205583352        0.00416039480241
C            2.74786542865925        1.84750624215236       -0.00193310920030
C            1.37384256682528        2.15078398068525       -0.00676127283675
C            0.38561042800709        1.22373274621004       -0.00805805768613
C            0.40532700818054       -0.28512407198513       -0.00516350038398
C            1.51385349643729       -1.13073450390864        0.00161818679612
C            1.29986966791250       -2.52547672411269        0.00388179935626
N            1.09877782213332       -3.65733260950590        0.00661400432494
C            2.84181442684732       -0.71130822039975        0.00594534795031
H            3.58682775032281       -1.49906198349085        0.01151949347205
C           -0.99301883617873       -0.30386040964049       -0.00649375761502
C           -1.04089618809569        1.17209914255051       -0.00911149358448
C           -2.08561849821389        2.05912419258565       -0.01327913353738
N           -3.37689907694014        1.78498494675915       -0.00577532043848
C           -3.92876265617929        0.56495441034293        0.00323087800675
N           -5.28165444712724        0.65471352072782        0.01312513919870
H           -5.87378840182261       -0.15408657847075        0.04936499043483
H           -5.68420983488135        1.57486932602754        0.03354556966252
C           -3.40065494841773       -0.74165767146424       -0.00303333744724
C           -2.08265450560809       -1.20156240050390       -0.00863813463100
N           -1.86674959950415       -2.53125010919046       -0.01427009854400
H           -0.93636687719189       -2.91536651592723       -0.01552432717609
H           -2.64422391378994       -3.16755266515274       -0.01678819001690
H           -4.15472149114748       -1.52137582465606       -0.00107122310300
H           -1.86890865514644        3.12371671129154       -0.02146501984975
H            1.10073121940974        3.19842513446239       -0.00895426149907
H            3.42252972846749        2.69511481894727       -0.00202276406268
