34
 energy: -61.766129775788 gnorm: 0.000886998312 xtb: 6.6.1 (8d0f1dd)
N            4.86868403157331        2.08695266478520       -0.06803679678437
C            3.99238080313155        1.33484149366439       -0.04684154427345
C            2.92655032176827        0.42864479602087       -0.02011649363392
C            3.30715893312437       -0.96004236932521       -0.02462889227158
N            2.62737384951411       -2.08438487631319        0.04014649327257
C            1.29575635948598       -2.25746259055467        0.06662595058330
N            0.92645906621736       -3.57354029245954        0.09584174445449
H            1.66166872412261       -4.22797807596662        0.30378397963448
H           -0.00295913340918       -3.80031699104151        0.40182084888244
C            0.34815158589031       -1.26126989288529        0.01595751406639
C            0.47630753149098        0.22158721492219        0.00192909850350
C            1.63198593609856        1.00964928636787       -0.00423609180095
N            1.54234475371320        2.35446784420744       -0.00039654834121
H            2.38203013786657        2.90888814556567       -0.00868367268737
H            0.65062786414479        2.81966406122928        0.00178545736930
C           -0.91777116761745        0.36004797444870        0.00531019958696
C           -1.06638581804058       -1.13840851348763        0.00732650557978
C           -2.17435325483973       -1.92044811410871       -0.03051320419433
C           -3.49660505761111       -1.40213245521794       -0.05758001254932
N           -4.51335074180053       -2.32082621846894       -0.05864299518510
H           -5.43637336091278       -1.95906598144274       -0.22875837431169
H           -4.32409478312775       -3.26266975555275       -0.35348521247699
N           -3.92860304121849       -0.15838855231265       -0.03124291202154
C           -3.31077594306362        1.01150197483859        0.01054100332964
N           -4.18509125222900        2.05875025689260        0.00725314866924
H           -3.86345486535816        2.99758557682050        0.16112195484683
H           -5.16057011096028        1.84455955980493        0.10721473198006
C           -1.91956515370531        1.32560669479260        0.01016735374954
C           -1.58169207455586        2.68426665255420        0.02721373283243
N           -1.31624026411058        3.80689598280618        0.05030798287449
H           -2.07581902189614       -2.99907804002634       -0.05492419050101
N            4.64239637164846       -1.18604757169091       -0.08209080556686
H            4.95104869019807       -2.14132017669117       -0.09079312222762
H            5.30383677586978       -0.43140053177351       -0.13024961068829
