30
 energy: -50.059084565667 gnorm: 0.000391547168 xtb: 6.6.1 (8d0f1dd)
N           -4.81313322147660       -2.17487759047512       -0.09922359078756
C           -3.88689318394195       -1.48816635191538       -0.06552807191679
C           -2.76430045309862       -0.64955828453629       -0.02836371320468
C           -1.52833244295115       -1.30321224049182       -0.00146256189644
C           -0.31272623025184       -0.68081127752028        0.01954180459662
C            0.06147647703817        0.75290774264190        0.01804958621877
C           -0.73067600603668        1.88332767043257        0.03335578254788
N           -0.14491066025699        3.11652550748050        0.02013928101876
H            0.83520461909092        3.17214497241676        0.23168231029522
H           -0.70552121381039        3.92388464987850        0.23154875422774
C           -2.14275195722430        1.83689036379786        0.01402740845133
C           -3.02699528470258        0.76946990289896       -0.02241802369348
N           -4.34852618527962        1.09194932567856       -0.03453176640209
H           -5.04432952531101        0.36880099945533       -0.09545446826189
H           -4.63857058284827        2.05155572823210       -0.07694888424444
H           -2.62016445479184        2.81175761102512        0.02243644500742
C            1.43636330975895        0.40429685413580        0.02358689789562
C            1.05798734377470       -1.04959857793589        0.03836932488929
C            1.84978540177407       -2.16020799235063        0.07010335122031
C            3.25262530062833       -2.10013244635979        0.07928174737610
N            4.08657633775225       -1.08564608646630        0.02788574705803
C            3.87777242334167        0.22258213197939       -0.01755372223967
N            5.05365174344339        0.94186751396435       -0.01238826907566
H            5.05127756056643        1.87753893801932       -0.38055928880809
H            5.88277847184682        0.39509918934830       -0.17721225055679
C            2.67469354220029        0.97203910967135       -0.01138109883449
H            2.78105008896574        2.05116948207333       -0.04589471547332
H            3.77474857476810       -3.05298385794663        0.11823866528180
H            1.39033698765092       -3.14030355578691        0.08902874312801
H           -1.55516202641907       -2.38690827554499       -0.00264949601786
