27
 energy: -46.897656920041 gnorm: 0.000930904626 xtb: 6.6.1 (8d0f1dd)
N            4.63116448662912        2.56407416216767        0.02095115519480
C            3.80746692126002        1.76183209664808        0.01697783901128
C            2.79237800141338        0.78701716435249        0.00960023263656
C            1.44577926938169        1.28128633404193       -0.03159881418190
C            0.38228794981586        0.45855998315785       -0.00362892093530
C            0.27813341433452       -1.02187549936760        0.02732980597167
C            1.31683597709892       -1.97055283063205       -0.00924766948170
N            1.01234380618182       -3.28203055910804       -0.07849487180768
H            1.76955231320239       -3.93993506759622       -0.14697310230924
H            0.06143855923946       -3.58851839547341       -0.17191927268313
N            2.62292715989149       -1.71788278735960        0.03335240620197
C            3.22172252911154       -0.53509533373990        0.06812069459870
H            4.30273045480542       -0.65364512940831        0.13741907505432
C           -1.11969174955764       -0.96856434180108        0.01528621999406
C           -1.06401900526892        0.53070246481555       -0.01744326869297
N           -1.91525186419657        1.48247237693077       -0.03524093237191
C           -3.25941042764128        1.26080365982741       -0.03889256948366
N           -3.95717071961878        2.42922007722634       -0.13756315008243
H           -3.42989298561847        3.27846092438425       -0.03389481371844
H           -4.94368658274230        2.44989240449227        0.04676163270594
C           -3.96202622253799        0.06021960633229        0.01275801489035
C           -3.52979166959393       -1.27275416043403        0.06137351267531
C           -2.24417939355431       -1.77905082270417        0.06420571991433
H           -2.12716305293078       -2.85530555290406        0.11698170843688
H           -4.32855858877391       -2.00284005128891        0.10353194288826
H           -5.03918528738150        0.18551929535900        0.01464101502560
H            1.30629633585053        2.35353588108189       -0.06713370035215
