27
 energy: -46.107575348722 gnorm: 0.000644395260 xtb: 6.6.1 (8d0f1dd)
N           -4.51150943501444       -1.56079738005725        0.11542160923803
C           -3.44308010351427       -0.71269881466334        0.01206658672790
N           -3.77931908207917        0.54968530481314       -0.04922335541839
C           -3.03124830167426        1.65606084247502       -0.09721692601613
C           -1.66712414514057        1.85806020994281       -0.09907611277158
C           -0.73915865885485        0.82456169307236       -0.04621636871832
C           -0.99896425317094       -0.64680221781394        0.00620350439853
C            0.43035163530278       -0.87163511872478        0.01569690773756
C            0.63636034725536        0.59099956315417       -0.04133808771079
C            1.86757744968514        1.27702547351265        0.04641119724552
N            1.86318210063738        2.62855332090889        0.10879145051397
H            0.99799018933805        3.12140801155412        0.23246413257009
H            2.73543848889066        3.09943236315824        0.27320231799834
N            3.05613803259846        0.71171767422090        0.05496993268133
C            3.34291262127261       -0.61042398714392       -0.02500114090939
N            4.67288728193907       -0.80036197748237       -0.20195926352806
H            5.03265352160491       -1.73707956305038       -0.18650372375358
H            5.28481326428184       -0.00550925135242       -0.18996457667283
N            2.67103680395950       -1.73977515085748        0.07146132981022
C            1.33347834597349       -1.87442523367776        0.11797981804677
H            1.00908424926706       -2.90545511705716        0.22145577532954
C           -2.14700318366098       -1.34391771895639        0.02791111047872
H           -2.12548888054336       -2.42623221423328        0.06651901256877
H           -1.31647459177102        2.88241883247248       -0.15371568680769
H           -3.65531169527121        2.54528109753220       -0.14619729786782
H           -5.42059507558718       -1.15206071334596       -0.01719097109767
H           -4.39778815192400       -2.53967242580051       -0.07709190067301
