29
 energy: -55.155483911336 gnorm: 0.000129716367 xtb: 6.6.1 (8d0f1dd)
N           -5.28956468748399       -1.93736513380824       -0.00309118357952
C           -4.39192765561519       -1.21993352093784       -0.00251130978613
C           -3.28281256671760       -0.35004054795164       -0.00186131644690
C           -1.98718952603110       -1.00654577630218       -0.00108477272077
C           -0.85551153168399       -0.29614091901418       -0.00100317704183
C           -0.61118780597187        1.15670287381729       -0.00135095441751
C            0.76380377606036        0.98378332820565       -0.00063204459679
N            1.83394331463028        1.78209997272054       -0.00045395813652
C            3.04465502929000        1.28218138759108        0.00073367270102
N            4.05426846299662        2.18263580459364        0.00777204588781
H            3.84235110341614        3.16253624635231       -0.00748659993028
H            5.00154277379981        1.85505871709376       -0.00930506742524
N            3.52496401908217        0.00627037401290       -0.00096082134901
C            2.95422658547815       -1.15200624395651       -0.00152223172359
N            3.78342144115310       -2.21477484378146       -0.00372795573281
H            3.42924848620225       -3.15593585572797       -0.00358457049024
H            4.77451701666983       -2.04874621839971       -0.00333783178650
C            1.51190198312682       -1.48321250456901       -0.00090316099620
C            1.13911570469366       -2.84207472487561       -0.00145282187626
N            0.88112830534079       -3.96126955435439       -0.00181967655848
C            0.59882942720555       -0.49222504638630       -0.00052026684239
C           -1.55079121824112        2.23682897415780       -0.00103314244520
N           -1.02551460185893        3.47297813734189       -0.00012491308688
H           -0.02519832235709        3.57951171777946        0.00137613887737
H           -1.63868512494744        4.26943141360717        0.00119635202975
N           -2.85616778113540        2.13305351420559       -0.00149946115563
C           -3.57814593207488        0.99475440329303       -0.00227993186201
H           -4.64157655490414        1.22726410964335       -0.00318090778518
H           -1.97642107422287       -2.08783645935050       -0.00074658932412
