33
 energy: -63.634210189502 gnorm: 0.000375339451 xtb: 6.6.1 (8d0f1dd)
N           -4.07220014438428       -3.57456918511548       -0.00012502770964
C           -3.45431199989507       -2.60406376442395        0.00023013247179
C           -2.70068860202595       -1.41353571522716        0.00022064141331
C           -1.30230607906394       -1.61461059550357        0.00063272211904
C           -0.39050207010418       -0.61154022588943        0.00080320796001
C           -0.55571505645404        0.85502991151844        0.00065211950259
C           -1.69293142687730        1.67650510597209        0.00021028360326
N           -1.48056219671580        3.00170053982991        0.00007320439483
H           -2.24506845140164        3.65629301516517       -0.00020094632214
H           -0.52818313657197        3.33038764445894        0.00039135983780
C           -3.00418165939381        1.15357164686702       -0.00016886732380
C           -4.01790176803309        2.12836574907025       -0.00077266873656
N           -4.82520975008661        2.95034504774921       -0.00066691073072
C           -3.45152255697947       -0.20900389229354       -0.00014795749546
N           -4.79371724879214       -0.36070270890644       -0.00052920475378
H           -5.40131014722731        0.44168543737657       -0.00081077588047
H           -5.19713967320610       -1.28326897699261       -0.00053763455688
C            0.82360222391663        1.04947747324866        0.00105084879874
N            1.63524988775575        2.08497774515592        0.00123732501241
C            2.93669036203690        1.93833987940122        0.00167606800886
C            3.76869377289323        0.78618638555931        0.00201673892158
C            5.14424832191589        1.11895109808447        0.00262822504051
N            6.26076867097034        1.38863961311436        0.00253819305857
C            3.49320261784269       -0.59505063983509        0.00197159839455
N            4.53405659888251       -1.45998781220863        0.00231192468077
H            4.37151281816097       -2.45250924492712        0.00230009233318
H            5.47966665129944       -1.11646575123206        0.00263037476242
C            2.17563563553445       -1.18483584098783        0.00160038648218
C            2.08089052046090       -2.59616083078019        0.00131502494786
N            2.01185903674859       -3.74160549400951        0.00205343039984
C            1.03406492279819       -0.44598617320909        0.00123158605517
H            3.47521337132939        2.88085622908251        0.00184081391580
H           -0.96114093983327       -2.64228485861238        0.00084816749443
