32
 energy: -58.315326162552 gnorm: 0.000723399655 xtb: 6.6.1 (8d0f1dd)
N            5.26649547601876        1.57062510960061        0.08219157336566
C            4.32993370577315        0.89989706953971        0.06251613442307
C            3.17331284537862        0.10386856407855        0.03670169018858
C            3.42332339886094       -1.28546694485105        0.03117097231014
N            2.69943168740530       -2.36429901807941       -0.01113150307353
C            1.34155218679194       -2.43060515574478       -0.03996055003200
N            0.88897487101283       -3.71328206369477       -0.06679240710587
H           -0.06692863143801       -3.90223436120493       -0.30661589344353
H            1.58259585058574       -4.42429103800045       -0.22405187040588
C            0.48083410881717       -1.36259757199059       -0.00125100742926
C            0.71990237356873        0.11155029873210        0.01240112930556
C            1.92999036898742        0.80825647523743        0.02554838402375
N            1.96564506042307        2.15069845263404        0.03408608134701
H            1.12323842254608        2.70221583321333        0.02760077149331
H            2.85663259272488        2.62065280707967        0.04337281921916
C           -0.65968767418129        0.35396853631283        0.00224840261966
C           -0.92378198287557       -1.12729693213421        0.00148947877768
C           -2.08821933398325       -1.81849193375342        0.03760635964378
C           -3.36905988169577       -1.19562197083080        0.06168451094054
N           -4.45116113823242       -2.03071330993746        0.07485919948577
H           -5.34821044923974       -1.60152177650572        0.22371600182068
H           -4.33924658002420       -2.99139174035973        0.34555071289084
N           -3.70037138064503        0.07685415492773        0.02576661445367
C           -2.99243913250107        1.19558727525802       -0.02382268822616
N           -3.77977575454408        2.30661140852266       -0.04852196518134
H           -4.77139993905764        2.17422727492047       -0.12548601359784
H           -3.38413343559727        3.22119656944395       -0.17182117207253
C           -1.58120938720832        1.39627951567254       -0.01283693381894
C           -1.13001448966868        2.72213781048573       -0.02924691005342
N           -0.76194206726056        3.81511891538800       -0.04756702068177
H           -2.07735075532450       -2.90144620283874        0.06223777700441
H            4.48738717238297       -1.52307760452128        0.05599275940865
