34
 energy: -62.558784681243 gnorm: 0.000675647366 xtb: 6.6.1 (8d0f1dd)
N           -4.86911726956690       -3.10616749751251        0.03901907728730
C           -4.10001232993765       -2.24944277189508        0.01570016908302
C           -3.12581912970328       -1.23510852199587       -0.00173334719235
C           -1.74916264118121       -1.70341797695252        0.01793634131548
N           -1.55330740444352       -3.04743597722702        0.00924213464134
H           -2.34132082012126       -3.66439155686131        0.11150704089006
H           -0.62957052809181       -3.41195961420428        0.14772168969560
C           -0.70117331147139       -0.82839400071472        0.01538694559512
C           -0.65471367336799        0.65757443207540        0.00796379187434
C            0.73871314518137        0.64329940880450        0.02747889037443
N            1.67948932877462        1.55815824951060        0.04763435935887
C            2.96916899849634        1.26592711811678        0.06171875161302
N            3.76648229167839        2.36475799046183        0.14965480346893
H            4.76339973713911        2.29844946206754        0.05063468698055
H            3.32054955174016        3.26242065951581        0.09416583008684
C            3.63130554056310       -0.01205506980575        0.00915416216561
C            5.03661562899091        0.08220972027720       -0.03029807648217
N            6.18473618899702        0.15766597746228       -0.07753413333705
C            3.13206335961933       -1.32762427671447       -0.01940502971251
N            4.03827289951829       -2.34241426637421       -0.04402476723734
H            5.02150719747565       -2.14544979422636       -0.11591286620675
H            3.72968089668015       -3.29060610242520       -0.15355868673784
C            1.76580890482576       -1.73309730441469       -0.00578275125119
C            0.73083107002047       -0.86655602458365        0.02357115246865
H            1.59291246532143       -2.80352222143168       -0.03179159745583
C           -1.63613255241343        1.64700296445944       -0.01764521547472
N           -1.23264629774894        2.92899835344733       -0.02399927241264
H           -1.90037345369504        3.68160374246312       -0.03564342190408
H           -0.24373101870381        3.11466123452428       -0.00062250986082
C           -3.02044123664281        1.32786063646413       -0.03725904189850
C           -3.90206817137013        2.42190119899553       -0.06538242123590
N           -4.58916158175754        3.34550174593960       -0.08839526307369
C           -3.61753673450071        0.05568486994057       -0.02701760878391
H           -4.70383350690509        0.10221888221339       -0.03817982404193
