30
 energy: -50.046380034172 gnorm: 0.000871834713 xtb: 6.6.1 (8d0f1dd)
N           -1.41561032971558       -3.73011796700030       -0.01995477911242
C           -1.43658477431591       -2.58023177282665       -0.03695951694806
C           -1.49631083737204       -1.17318729075123       -0.03270408992117
C           -0.29055167246137       -0.47756100956664       -0.03158730168443
C           -0.01634176700076        0.99320911379738       -0.02724318609338
C           -0.85439943975029        2.05334793209717       -0.04985610311541
C           -2.27438632428650        1.95868543934277       -0.02685594541468
N           -2.94075491525718        3.16760012032595        0.04588320399564
H           -2.44366537686037        3.98666169194591       -0.26204630360109
H           -3.92498500470172        3.16676667803203       -0.16536931346832
C           -3.05342485578032        0.81390141107953       -0.00295667438870
C           -2.76858276795106       -0.56449582080424       -0.00971471427611
N           -3.86060574033872       -1.39955534912920       -0.06576535224244
H           -4.75907277297021       -1.03537333201641        0.19859128288611
H           -3.70790733786785       -2.38141706722236        0.09601663975982
H           -4.12091247429607        1.01853732042891        0.01309006864443
H           -0.44692052431559        3.05784316295424       -0.08486009295042
C            1.38888251647783        0.71642835369372       -0.05463625278985
C            1.08002783465514       -0.74967875804321       -0.06891471654736
C            1.94019953637170       -1.83070663181331        0.07271969651843
N            3.24521650289309       -1.81409388724213        0.01895061919878
C            4.02868456788702       -0.72605297332444       -0.14028302704693
C            3.82910528516606        0.61985324177993       -0.05766175713252
C            2.58906633667475        1.35453049369726        0.03028440037593
N            2.68175095215106        2.71798308741322        0.08546513886357
H            1.85140705084673        3.23630204172400        0.31181252231151
H            3.55969976148502        3.12454491762971        0.35939237380563
H            4.71499656324195        1.24106400945252       -0.11579564977756
H            5.06147160271003       -1.03081381840019       -0.30122697667204
H            1.50855457938135       -2.81265473505352        0.25406189902318
