32
 energy: -59.909747465248 gnorm: 0.000596558233 xtb: 6.6.1 (8d0f1dd)
N            3.49090995855634        4.16945094316420       -0.00059158296357
C            2.98341909073913        3.13969336071546       -0.00106025939646
C            2.35095092571389        1.87738900708181       -0.00039199995204
C            0.92274681613131        1.89566168207638       -0.00032100376738
C            0.17196789182863        0.77854085976995       -0.00004733719344
C            0.46639801064788       -0.67650691071467        0.00027868916483
C            1.71233366579924       -1.33600380832845        0.00040373175424
N            1.77006133345547       -2.67489641059954        0.00083918712618
H            2.66783608968615       -3.13373164737067        0.00092947142456
H            0.93891957729648       -3.24523114087574        0.00100411066401
C            2.93609052828802       -0.61189756593822        0.00024031237626
C            4.10444983087522       -1.40213030137748        0.00206779868444
N            5.04557297868466       -2.06319080016275       -0.00156639011426
C            3.18345619699130        0.77450093488619       -0.00010079300714
H            4.24325456404924        1.01473225928999       -0.00007258924960
C           -0.90211400388537       -0.98018428361914        0.00039092315441
C           -1.24271736801620        0.46557018841196        0.00007451890281
C           -2.40827147618886        1.15783560534441       -0.00010025591915
C           -2.34497548991007        2.57273916207589       -0.00050802840371
N           -2.32516625323662        3.71966295036114       -0.00157059982808
C           -3.72601367398916        0.55647095430093        0.00008227603292
N           -4.77314818373440        1.42129719153406        0.00094799194401
H           -4.62086213117512        2.41470170615885       -0.00174247580237
H           -5.71551496133798        1.07590574499376       -0.00131114391799
C           -4.00068583668883       -0.80328337778359        0.00023311258663
C           -3.18414064163191       -1.93667567756174        0.00047549692987
C           -1.79832202559485       -2.06032161781212        0.00056900640117
C           -1.29038403647257       -3.37387886174032        0.00136546793016
N           -0.86016096645657       -4.44056531795010        0.00033968699658
H           -3.72268372376285       -2.87670184233154        0.00062627893261
H           -5.06138423444198       -1.02948449118849        0.00030592865122
H            0.44064143918040        2.86467923698954       -0.00053644314173
