35
 energy: -61.473514261300 gnorm: 0.000774616839 xtb: 6.6.1 (8d0f1dd)
N           -6.00261551776355       -0.75584136240479        0.15270956496851
C           -4.87812092013308       -0.52009812167739        0.06174434956700
C           -3.50178842993267       -0.23384319627053       -0.01179756119201
C           -2.67512344746070       -1.40453167570738       -0.08796590313857
N           -1.35582208915650       -1.52241481704843       -0.07475673452299
C           -0.54888771266140       -0.49052413514338       -0.04878900945432
C           -0.74556232953047        1.01511803156565       -0.03790699147704
C           -1.89662803015580        1.73000053298321        0.00667622978546
C           -3.18540288485465        1.14130487023025        0.02286837894181
N           -4.23437527010760        2.02376169132055        0.03258436065673
H           -5.16528019053866        1.67734682549118        0.19294751306974
H           -4.05435124339088        2.98255373679580        0.27097502498770
H           -1.87067594864494        2.81412694091181        0.04792887404452
C            0.66671353680373        1.16511318535813       -0.02621633964121
C            0.83186947991583       -0.30783710303554       -0.02324972035214
C            1.94753839209425       -1.14551874042152        0.00189762434119
N            1.71003272199598       -2.47388295189214        0.00628339973501
H            2.46383425758318       -3.13874793660235        0.00267339618905
H            0.75229620148771       -2.77841861524734       -0.03334710843416
C            3.27090415979555       -0.65723001966271        0.03102030888015
C            4.26701321198796       -1.63811853591212        0.07667612120915
N            5.07035705502744       -2.46711642893544        0.12053504775171
C            3.71745870584312        0.71150435908965        0.02312443749812
N            5.07632139609258        0.84610540904935        0.01240256052831
H            5.48897073193202        1.75315517691848        0.13184200670685
H            5.65925828508536        0.03723579151565        0.14268765907083
C            3.00292517247355        1.89854071476882       -0.01182407763132
C            1.61553460574864        2.16256389757465       -0.03760594483845
N            1.22281824447960        3.47758057451161       -0.01644156640811
H            0.27072066579882        3.67137536639735       -0.27322575766102
H            1.90111940030787        4.17407442207206       -0.27572113911976
H            3.62285037536767        2.78935134390448       -0.01775845265940
N           -3.31601760007520       -2.60717304250387       -0.21441993436788
H           -4.30055972817120       -2.67841555552685       -0.02544228301600
H           -2.74694633934355       -3.42726597986712       -0.10014336691775
