26
 energy: -47.171003211148 gnorm: 0.000852245681 xtb: 6.6.1 (8d0f1dd)
N            4.39188154640077        2.33950067202834        0.00122780480206
C            3.49047042670887        1.62296033650225       -0.00090891181152
C            2.40016398265848        0.73356287117166       -0.00094450800998
C            1.13906802099527        1.34793895237727       -0.00061374958349
C           -0.04820407637807        0.67476427582078       -0.00123680264094
C           -0.34170117991087       -0.76913656179718       -0.00233400393912
C            0.50721304667144       -1.89341397112653       -0.00307467708182
N           -0.09398674829953       -3.09602385012540       -0.00403618659407
H           -1.10074636431991       -3.12311350681953       -0.00438874234288
H            0.43204143403721       -3.95157038313799       -0.00491239171665
C            1.89691592250700       -1.78984180965991       -0.00283262155520
C            2.73204395741335       -0.66213584217045       -0.00192122281274
N            4.05898198412975       -0.93015785848905       -0.00203366007267
H            4.39069734376913       -1.87777785305126       -0.00264394873905
H            4.72870182128830       -0.17897578644799       -0.00139396434687
H            2.42684251514509       -2.73656479174334       -0.00351354383664
C           -1.71174791451020       -0.54779770195779       -0.00248118459851
N           -2.82403278668384       -1.25207434306052       -0.00341632546830
C           -3.97892803352583       -0.60930225594416       -0.00333514172671
N           -4.30107506435800        0.68557291393908       -0.00227049045805
C           -3.56970314351099        1.76377445440676       -0.00111354620160
N           -2.23070881999112        1.98504072011286       -0.00069545482617
C           -1.44438553542839        0.96675933076022       -0.00130749832013
H           -4.14215317705413        2.68775956624643       -0.00035495800328
H           -4.84693725192064       -1.26272677621877       -0.00426614038497
H            1.12149583116686        2.43033794678425        0.00007833106930
