28
 energy: -50.629886338852 gnorm: 0.000969535078 xtb: 6.6.1 (8d0f1dd)
N            4.86663265165772        2.23416102732827       -0.00417112702844
C            4.00375010505410        1.47004085820011        0.00154899541572
C            2.96032766524646        0.53102234930436        0.00600934453469
C            1.63110514402128        1.11593262479987        0.01354158488988
C            0.50624295926536        0.39862397051038        0.01357909724350
C            0.22472969764865       -1.05440894090338        0.00737757875239
C            1.13775007749394       -2.12846853259417        0.00091611813348
C            2.48422223829421       -1.99886414595913       -0.00233667588661
C            3.32266009029503       -0.80832561038754       -0.00136905630516
N            4.65045500118272       -1.09854458770040       -0.00178570544223
H            5.32801189127571       -0.35510493984659       -0.01984312940843
H            4.96933963586629       -2.04839291609075       -0.04266735473924
H            3.06093863725674       -2.91658852006168       -0.00525171810245
H            0.71634245313641       -3.12549462301614       -0.00003087596480
C           -1.14683938494542       -0.84735750598404        0.01178307072915
N           -2.26100189438916       -1.58863695767767        0.00914534152767
C           -3.42682478361171       -0.98962878315798        0.01370160924092
N           -4.50808654391673       -1.80465756164210        0.05536879561969
H           -5.41985807407427       -1.40388367914458       -0.06196062124452
H           -4.36421403317659       -2.79310287031254       -0.03916494479644
N           -3.79184920220585        0.32522174751745       -0.00039407534992
C           -3.08687344443359        1.41177988489132       -0.00261657469090
N           -3.76695120902563        2.57304021831066       -0.02388587381295
H           -4.77038092074292        2.56436173371546       -0.02489420857640
H           -3.25170454855396        3.43447901445322       -0.01866139805837
N           -1.71393730403624        1.64246419371288        0.00811672436971
C           -0.94084491893615        0.62685265284652        0.01489606282309
H            1.58856040535287        2.19645021758891        0.01791416342672
