34
 energy: -62.558262614467 gnorm: 0.000900911478 xtb: 6.6.1 (8d0f1dd)
N           -6.53849438898714       -0.76728908157441       -0.00245655755766
C           -5.40276148934321       -0.59044250107383        0.01006454522675
C           -4.00743872356489       -0.36605531035632        0.01809283211058
C           -3.26574731635514       -1.56853241219333        0.05373628143404
N           -1.97064956160163       -1.80266864052331        0.05312181477999
C           -1.09728449044047       -0.82671151198791        0.03595195745074
C           -1.18932771030775        0.68812711438572        0.01986658955009
C           -2.28309733116082        1.48632853587612       -0.01797195985734
C           -3.61440817559828        0.99296441205122       -0.01966581815966
N           -4.60195229056640        1.93105617394231       -0.03312157465215
H           -5.56369497812760        1.64787076138321       -0.10888891910008
H           -4.37551943090231        2.89963301193387       -0.16378244862665
H           -2.18008457643448        2.56607270544303       -0.05441042486819
C            0.23685880392304        0.73416766384760        0.01575419637181
C            0.29634086634151       -0.73638445373529        0.02216445730317
C            1.34484294270978       -1.65692499725107        0.00720099534287
N            1.01136710435595       -2.96006030718215        0.01464250688023
H            0.03211324783709       -3.19483104500635        0.03322432427278
H            1.71232785444385       -3.68094531423140        0.00620528267268
C            2.70165128443023       -1.25972594085878       -0.01874371047760
C            3.62123466665640       -2.32071401702550       -0.03987302688578
N            4.35113879752545       -3.21296092011564       -0.05520702558791
C            3.26052353647036        0.05510346665291       -0.02347680515904
N            4.61538773749547        0.08481279709898       -0.05306838106283
H            5.10574132572485        0.96280188889177       -0.05274015366895
H            5.14143810092683       -0.77220038344650       -0.06313686344661
C            2.62940391698138        1.32108167596434        0.00313182637531
C            3.49893545249896        2.42361619686994        0.01804169294434
N            4.19038545676555        3.34678028551027        0.04000674680927
C            1.23992875517909        1.67656284526717        0.01846607358945
N            0.92650620760904        2.99795699913570        0.00801793886695
H           -0.02814526535256        3.27264810055431        0.13803521357467
H            1.65033638200447        3.68934012907896        0.10246295394177
H           -3.86460311233585       -2.47389236642551        0.07791433121307
