27
 energy: -46.894151799356 gnorm: 0.000553678326 xtb: 6.6.1 (8d0f1dd)
N           -2.01687941729453       -3.34938376507343       -0.00562852132017
C           -1.92278202482940       -2.20323632393749       -0.00596649889468
C           -1.85368522095104       -0.79875731278102       -0.00580303084119
C           -0.67283211534723       -0.14545708954652       -0.01402133535933
C           -0.36155866775342        1.31538569793515       -0.01130031168397
N           -1.14462852213908        2.39665710993490        0.00156434590326
C           -2.43454744171713        2.29606014156072        0.01219032405971
N           -3.29841530440111        1.25417730087659        0.01158164890222
C           -3.11924378579796       -0.02635062091323        0.00374771962167
N           -4.24613738634568       -0.77507877916212        0.00552892515508
H           -4.21229432661216       -1.77946160478948       -0.00173249378010
H           -5.12937823301966       -0.29614623284371        0.01058226732226
H           -2.96136453065664        3.24626442108952        0.02375013027411
C            0.99948148493309        1.04209108662226       -0.01950730904391
C            0.75851596892591       -0.41396977234008       -0.02270648646690
C            1.58166583538789       -1.47783439463754       -0.02817990223912
C            3.00202993963726       -1.38061761450471       -0.02157718794341
C            3.80242633630815       -0.26574673199297       -0.02055090281044
N            5.15739505213362       -0.46753562189833       -0.05887107133083
H            5.77792266891889        0.29558609337349        0.14491480492799
H            5.51414262707843       -1.39592171916954        0.08735840970269
C            3.44300186219023        1.14579157435182       -0.03081838583685
C            2.22799487654637        1.73730921727588       -0.02845133325073
H            2.17459368320228        2.81807642902375       -0.03437853991324
H            4.30471382433938        1.80302743952236       -0.04317755417818
H            3.52480809188368       -2.32950295050685       -0.01674971223609
H            1.15987798577989       -2.47451487166934       -0.02881288194003
