26
 energy: -47.186287165252 gnorm: 0.000653949594 xtb: 6.6.1 (8d0f1dd)
N           -1.96965622185971       -3.36978271503978       -0.00152789996918
C           -2.08811754322099       -2.22562568801582       -0.00427857550862
C           -2.17271058561518       -0.82003611833027       -0.00225515302371
C           -0.98844869502059       -0.08673191780050       -0.00138343490735
C           -0.83503943630210        1.41158185299514       -0.00081009706355
C            0.58201271055010        1.23453470632132       -0.00019915482245
C            0.40094539495934       -0.23293172542957       -0.00083277131246
C            1.41786819053491       -1.21442688972181       -0.00080206395056
N            1.11577166087451       -2.52053443000436       -0.00149359741563
H            0.16494562389061       -2.85421257370739       -0.00203329220011
H            1.87623485789470       -3.17855884842723       -0.00138541094832
N            2.71808333671797       -0.94647697535141       -0.00006434630480
C            3.33755153850387        0.23770258887119        0.00074861881639
N            4.67916302047297        0.10489150946813        0.00153712834974
H            5.08620934537228       -0.81271340739758        0.00126411277693
H            5.24705106257940        0.93308217687819        0.00199450412321
N            2.96906101142025        1.52521997988458        0.00095766638389
C            1.72793279891725        1.98490943901017        0.00052709885823
H            1.66177207598242        3.06901413736770        0.00078993740693
C           -1.76860070587948        2.39396611611351       -0.00097699288029
C           -3.16285325649574        2.13708410247716       -0.00175201442643
N           -3.84626418824499        1.02355104993408       -0.00241484140021
C           -3.45105914693793       -0.23914642544349       -0.00265769008365
H           -4.28707295189973       -0.93399051542018       -0.00342677231661
H           -3.80430935953254        3.01500155061610       -0.00182994062902
H           -1.45287071016164        3.42945825645217       -0.00049878865234
