27
 energy: -46.887878040188 gnorm: 0.000628869419 xtb: 6.6.1 (8d0f1dd)
N           -4.85908461197918       -1.73939795492079       -0.05555120638138
C           -3.96047004663539       -1.01917256344255       -0.02000620163241
C           -2.83858033053767       -0.17688687199056        0.00696385344020
C           -1.56385328966905       -0.83189990583361       -0.04498001266072
N           -1.54033433899678       -2.17557994736149       -0.15878600328328
H           -0.66467372316204       -2.66420554323469       -0.17399498427189
H           -2.40035769321130       -2.69046618122281       -0.25121879704826
C           -0.38401507109016       -0.11123161563978        0.06027063738738
C           -0.17754883135359        1.36497720218141        0.05518134628981
C           -1.07072560465049        2.38571302172798       -0.06167795786628
N           -2.39826130379834        2.28875922277505        0.07380875793207
C           -3.10843079389144        1.19668447887209        0.17230637472677
H           -4.15711657471813        1.41178746079435        0.37576994239713
H           -0.71558039040313        3.39498239791543       -0.23642691404282
C            1.23442472216230        1.15960463331803        0.00794809367058
N            2.27712738107924        1.91389929354975       -0.00467348373994
C            3.51569855529275        1.40351023298145       -0.05668062236999
C            3.97595816658226        0.10336828388951       -0.04013725748726
C            3.31105101606809       -1.14351462002535        0.02049244546564
N            4.11174650375194       -2.25916216109247       -0.01067420589120
H            5.09446993994329       -2.14990938134904        0.17045816703128
H            3.70999577040313       -3.14653000245229        0.23755734740810
C            1.92398005477538       -1.35331247635497        0.05077227970726
C            1.00589244940191       -0.33607277543110        0.01046305963421
H            1.58991607909233       -2.38401894449858        0.11751253533703
H            5.05712690321555        0.01502201577376       -0.06988090459094
H            4.27250938612839        2.17910698487128       -0.10312651306119
