30
 energy: -55.649922491039 gnorm: 0.000913391290 xtb: 6.6.1 (8d0f1dd)
N           -5.74735656758050       -0.99911995419235       -0.42046095356095
C           -4.71636623857890       -0.51660790208819       -0.25997965050448
C           -3.46400125157501        0.09979052457464       -0.08933540110327
C           -2.34131571178129       -0.69896014145091       -0.05083694135123
C           -1.05483847772901       -0.18281360349367        0.08241750164085
C           -0.61725056133312        1.24151850668665        0.05641078218812
C           -1.30973563551072        2.38288943126532       -0.03050054827770
N           -2.66467341701566        2.47242776635869        0.18749450325831
C           -3.52719967550749        1.53796255756911        0.18828969733011
H           -4.52669032006965        1.87006740360820        0.46684451399723
H           -0.82911226226407        3.34309104443913       -0.16798042020014
C            0.76497869725062        0.75974053767874        0.03953210350115
C            0.27505485008491       -0.61852294979130        0.06117358349891
C            0.98506641714351       -1.83405045557627        0.06375600914681
C            0.23544419270056       -3.02276129045658        0.10890684775260
N           -0.36204598673780       -4.00515141620180        0.14268835392288
C            2.38364756996467       -1.92707846577909        0.02742381309882
N            2.92319984667679       -3.17462197868535        0.01467237823796
H            2.32285140736505       -3.97885452871976        0.07359440735459
H            3.91671357568374       -3.31015174840630        0.03801405777404
C            3.32424330869370       -0.86026391350122       -0.01374046370291
C            3.22808447418539        0.51136231894027       -0.02472069723739
N            4.37668714851022        1.23575443215191       -0.05856325296497
H            4.34593072629087        2.23963681306837       -0.09065782842261
H            5.26809477928601        0.77769239750025       -0.10808279256157
C            2.00531482821228        1.30162623034885        0.00686777158278
C            2.13247627804864        2.70886284042318       -0.00139698604421
N            2.26508369809426        3.84895958213418       -0.01825898077533
H            4.35014045304326       -1.21640212350628       -0.04089859709581
H           -2.46231366685113       -1.77252067959833       -0.13861623688265
