30
 energy: -54.872155038071 gnorm: 0.000893298752 xtb: 6.6.1 (8d0f1dd)
N           -5.58435281515476       -0.17510255819953        0.00219185576256
C           -4.43879179483749       -0.08379733686976       -0.00135683486268
C           -3.02862932882193        0.03772343496403       -0.01748196140269
C           -2.37982631507249       -1.20797687679857       -0.01970700355196
C           -1.02160322929133       -1.51305420356575       -0.04991810614260
C           -0.66023526066002       -2.87494946781452       -0.05906260825845
N           -0.31368127420704       -3.97144423194211       -0.05683785550911
C            0.00125996251947       -0.56755835865971       -0.05692017513651
C           -0.11215713806044        0.93538202461600       -0.05569767237680
C           -1.18364236849642        1.76463888572582       -0.07602598431816
C           -2.54157136285288        1.36330688826057       -0.04629793333236
N           -3.46126599067250        2.37417899884026        0.00310122431864
H           -3.16892318684163        3.31346963096907       -0.19832520393318
H           -4.43860477647168        2.15801632971451       -0.09856128372753
H           -1.01212941734339        2.83496657783408       -0.11821806457383
C            1.30819864575736        1.01852103126952       -0.09654843696734
C            1.39195277401964       -0.46555834834060       -0.11154653704002
C            2.56539983045004       -1.24306706025435        0.01682220202662
N            2.50711052741925       -2.54563401878931        0.33025848290875
H            1.63872718584319       -3.05735319611707        0.33702976838107
H            3.37822552769579       -3.04681546033407        0.38253396116955
N            3.79307698103314       -0.76062613475174       -0.16468546146473
C            4.15977178089089        0.49236829481739       -0.36759809332873
N            3.62982137212581        1.66825146306581       -0.17800344391617
C            2.32448159116079        1.94494119195070        0.03432142615133
N            2.07612498356466        3.25367435090139        0.28428321918217
H            2.87011739231927        3.84718309613434        0.45053035449167
H            1.16423786230554        3.55086044619619        0.57788260338824
H            5.19918638343384        0.55637881379594       -0.69235417600570
H           -3.04964502095637       -2.06071540821974       -0.00285270713362
