24
 energy: -42.930560068292 gnorm: 0.000765521655 xtb: 6.6.1 (8d0f1dd)
N           -4.10713059880485       -1.32461070070234        0.00112020678209
C           -3.02276896813806       -0.52835565753021        0.00129630552282
N           -1.84860903411854       -1.29235093738868        0.00107803842388
C           -0.74248148327304       -0.66546926367570        0.00128036582141
C           -0.36400970215200        0.78654641586610        0.00175014458776
N           -1.10338953478986        1.91015211095165        0.00205106628939
C           -2.39653769835601        1.80531585815681        0.00196540977583
N           -3.24129536584791        0.75155949076341        0.00164478117842
H           -2.93054338523950        2.75134827136947        0.00221906210896
C            0.97156559078872        0.44667739737133        0.00175803030451
C            0.68729809720866       -0.99673781269886        0.00131129345380
C            1.49654633682798       -2.07110644432797        0.00126478944807
N            2.86091839785880       -2.04789420769728        0.00127774966240
C            3.61797209852629       -0.99749888798438        0.00169997546415
C            3.41850331960435        0.41239560756567        0.00238895538949
C            2.23336753008074        1.11806593943997        0.00234346788498
N            2.18124071024189        2.46341465639754        0.00276670907335
H            1.27793037407961        2.90792537315600        0.00289233279013
H            3.01724642670612        3.02016162417103        0.00355034007970
H            4.32860769344221        0.99977274421242        0.00284704835498
H            4.67313847730386       -1.27117265356380        0.00153069415022
H            1.08494575107824       -3.07338728894138        0.00109994573408
H           -5.02230239439560       -0.91176530355934        0.00114243940007
H           -3.97967544623212       -2.32044111045152        0.00071718821950
