30
 energy: -54.878483381499 gnorm: 0.000616060661 xtb: 6.6.1 (8d0f1dd)
N            5.27181302968124        2.31240181486789       -0.00142419582418
C            4.34858709828035        1.62229048628967       -0.00123287737183
C            3.23006935666123        0.77666911013046       -0.00069137812214
C            1.97731374706884        1.42272576633899       -0.00673090571886
C            0.79133046155673        0.75644867148480       -0.00332791398367
C            0.52547227411679       -0.70102931443878        0.00368799961802
C            1.41070748511558       -1.78519764991541       -0.00058434268841
N            0.89163989023818       -3.02527136751193       -0.00526618658372
H           -0.10781388558449       -3.13124757668665       -0.02263173457428
H            1.50386998389642       -3.82128230102749       -0.02438480607631
N            2.73969856232848       -1.71484218030005        0.00242018639026
C            3.51189050924216       -0.63214188047474        0.00772162379713
N            4.82091408588549       -0.96259933311966        0.02029944960866
H            5.53924066082478       -0.25844739538612        0.02255875544816
H            5.05895594373490       -1.93881177074912        0.02429897345296
C           -0.85155237622481       -0.47789700608461       -0.00314323834050
N           -1.91930878213854       -1.23873230210249       -0.00208862454202
C           -3.15094771064428       -0.75236012298961       -0.01220965965891
N           -4.11632066933991       -1.71043647880528       -0.05969057633553
H           -5.08568398527007       -1.47508830098252        0.06071084197284
H           -3.82435297984740       -2.66655275575589        0.03547754054334
C           -3.59389588147195        0.62099364588792       -0.00612499799628
C           -4.99823855865400        0.78148214125021        0.00924421081290
N           -6.14044723782883        0.90748901729223        0.03156766582372
C           -2.89077392869034        1.81918029617784       -0.00446535068379
C           -1.50272606716190        2.04054266591589       -0.00829036370356
C           -0.61073469145834        1.01735184468578       -0.00874327665346
H           -1.15686547958023        3.06602432572038       -0.00799695926043
H           -3.51244042155713        2.70753800629693        0.00207218387747
H            1.98735150872087        2.50573160769132       -0.01377128192761
