33
 energy: -58.036860012630 gnorm: 0.000586275218 xtb: 6.6.1 (8d0f1dd)
N           -2.93004563468032       -3.64387299369096       -0.00149183441222
C           -2.82547221622062       -2.49715310762621       -0.00682011555649
C           -2.64882425593031       -1.10195956000722       -0.01178837492151
C           -1.37138124017857       -0.57364512333856       -0.00892983605153
C           -0.98183029617086        0.90303479539714       -0.01117097376342
N           -1.62123755741530        2.03222674741723       -0.00631085237154
C           -2.95917261059575        2.10417929630746       -0.01565908291765
N           -3.42246517318153        3.39729997261050       -0.07746710360101
H           -2.74373691203975        4.11424565097571        0.11567408718985
H           -4.37106879933333        3.58554855548097        0.19608416417034
C           -3.92385168962835        1.07647023005419       -0.02139964749010
C           -3.80936768385525       -0.29867743849434       -0.01954936004518
H           -4.74415719220666       -0.84727174094513       -0.02230446700262
H           -4.94385294889647        1.44580128066116       -0.03034174983103
C            0.37003405918030        0.52496797147244       -0.00250836926567
C           -0.00827176528112       -0.90508447420291        0.00151944329934
C            0.81983845483654       -2.03333635095178        0.01241706714691
N            0.27233377961724       -3.26901598520979        0.01895842341051
H           -0.72558041121340       -3.39722552920378        0.01328847399710
H            0.85968780847799       -4.08299539765330        0.02777028260094
C            2.21856739272706       -1.93692908092693        0.01755233366957
C            3.09265113043431       -0.84812996983687        0.01151827622705
N            4.41404922505221       -1.17413616445123        0.02273250719193
H            4.70328293239925       -2.13432700028679        0.01454347906157
H            5.11464486587820       -0.45375968434869        0.00370946735408
C            2.83306788466391        0.55620682053822       -0.00161779676779
C            3.94861527485949        1.40159729274817       -0.01055359533923
N            4.85461019959619        2.11732769420191       -0.01879989503408
C            1.57593901397955        1.21171540181403       -0.00667563949030
N            1.51769660071732        2.56071320837343       -0.01091608628472
H            0.60753466085412        2.98788169971257       -0.03891046507236
H            2.35311884192517        3.11830939565297       -0.03909891658099
H            2.72407283902612       -2.89764195404483        0.02730039527960
