32
 energy: -59.115049584511 gnorm: 0.000539226992 xtb: 6.6.1 (8d0f1dd)
N           -4.52052624072307       -3.24184569367115        0.00099740815554
C           -3.74059077090529       -2.39414830544034        0.00057885716943
C           -2.78188487841039       -1.36665950691807        0.00042633818438
C           -1.42337739149940       -1.83900134683092        0.00033457912874
C           -0.34845032875869       -1.04080561492866        0.00013463215424
C           -0.20452584005047        0.43862885764846       -0.00002328386219
C           -1.16906667632473        1.42692006636410       -0.00000612031910
C           -2.53490784580703        1.20274152768163        0.00018918424422
C           -3.32926463699354        2.36387386626932        0.00055405966252
N           -3.98497465765881        3.31067226348937       -0.00017697148060
C           -3.27238723211189       -0.05770182290325        0.00036800952463
N           -4.61599173498176        0.09226698631698        0.00051068442125
H           -5.21220808611974       -0.71898238062580        0.00063831928540
H           -5.02901492520217        1.00999167304295        0.00046918108269
H           -0.83992944253552        2.46006888696949       -0.00011738981140
C            1.19307710549619        0.32899468040955       -0.00016649340122
C            1.10116225722661       -1.14987541303721       -0.00000516727381
C            2.04938204910473       -2.10160993187128       -0.00004116050309
C            3.45853452075411       -1.78993680527478       -0.00024019844157
N            4.29424698247751       -2.85440673850192       -0.00013749915045
H            5.28453918085846       -2.68641799085029       -0.00063921644807
H            3.94761440604670       -3.79564549749567       -0.00066193603164
N            4.07247695381077       -0.63532676812704       -0.00039785121332
C            3.64394148774437        0.63151566658945       -0.00042062419104
N            4.66914857795000        1.51816728551829       -0.00063463418305
H            5.60757601105032        1.16282251783521       -0.00054844491680
H            4.49771248069042        2.50810153184421       -0.00050726374816
C            2.32455154508767        1.14620556819332       -0.00035937255307
C            2.15660595525608        2.54153384872923       -0.00058172800383
N            2.04314877117183        3.68625155822775       -0.00029803467406
H            1.77308470557503       -3.14769365156413        0.00009424257834
H           -1.30295662381829       -2.91525002728876        0.00043963361505
