27
 energy: -50.909639707160 gnorm: 0.000936400443 xtb: 6.6.1 (8d0f1dd)
N            4.40345285369668        1.99163335144508       -0.00295418667682
C            3.47210010631430        1.31212674466155       -0.00005576795612
C            2.32404134427224        0.50645921747694        0.00000822205092
C            1.09171473436572        1.20509151425124       -0.00035820205448
N            1.06501992407204        2.54892992069840       -0.00164475362549
H            0.16918761103804        3.00752057710043       -0.00159519291383
H            1.91423811561808        3.08785250828517       -0.00212655640499
C           -0.12895099783317        0.52508000477831        0.00066043480880
C           -0.43281984746948       -0.91382212981683        0.00203622024997
C            0.42495645037650       -2.02137771156404        0.00257084435651
N           -0.11815670235610       -3.24938507952122        0.00368688727876
H            0.47768805768866       -4.05787455973513        0.00413959833316
H           -1.11998662036190       -3.33921126442988        0.00414226851309
N            1.75432790613166       -1.96934669539836        0.00211244972937
C            2.55445872214180       -0.91114866874342        0.00113563254792
N            3.85335900057443       -1.28216104326675        0.00126418371422
H            4.59675644656611       -0.60517737194512        0.00055936471647
H            4.05730528687028       -2.26578951284282        0.00199550843171
C           -1.80912593254659       -0.66094290096089        0.00239732769629
N           -2.93245641662245       -1.32018544543287        0.00337804595582
C           -4.07454641703057       -0.62204285171568        0.00324140591261
N           -4.35013359941489        0.66611984361746        0.00250550102369
C           -3.57597765892311        1.73429878039014        0.00145602582282
N           -2.25079326531289        1.90878160775228        0.00058553820337
C           -1.48981070505916        0.85035710964745        0.00097472289855
H           -4.13019853516574        2.66934474073570        0.00119979447462
H           -4.95936684813051       -1.25364473966718        0.00393990691306
