30
 energy: -55.663224614774 gnorm: 0.000961628258 xtb: 6.6.1 (8d0f1dd)
N            5.28101018487182        1.17916518104262        0.00184188360882
C            4.16677413408127        0.90084801863631       -0.00148201932041
C            2.79483920004469        0.54995646468906        0.00033106398649
C            1.94481421579734        1.68726872628357       -0.00001948265660
C            0.56860060411595        1.78230510899955        0.00006839374523
C            0.01306854597971        3.07704150429476       -0.00081793134524
N           -0.47722068567042        4.11706755155123       -0.00038900350380
C           -0.31149581947791        0.68099692804231        0.00043945811538
C            0.05166649710092       -0.76248304144950        0.00098806715802
C           -1.36173248279051       -1.08971252555733        0.00112074608081
C           -1.66568730703712        0.35708161455793        0.00054041043585
C           -2.96501541034011        0.96404419980352        0.00023509786325
N           -3.07257051763041        2.30123436871925       -0.00041698031260
H           -2.27607701018007        2.91825515290823       -0.00065038427082
H           -4.00245731855014        2.68634652766866       -0.00058376692694
N           -4.11265304972600        0.32071637401258        0.00056710243587
C           -4.34724729539199       -0.99860827989613        0.00114508442254
C           -3.55838169012892       -2.12249845238172        0.00151299512019
C           -2.14211781917226       -2.19231580931128        0.00151684927043
H           -1.67968502277013       -3.17037684514441        0.00184260748283
H           -4.07975403605935       -3.06925463051418        0.00186736814061
H           -5.41966881399438       -1.18294239430993        0.00132401984386
C            1.22475064728469       -1.43811082751038        0.00132343746657
C            1.17380358958217       -2.85324380650324        0.00337408124221
N            1.14905165335945       -4.00047713911784        0.00024639916329
C            2.53990662653337       -0.82464017154994        0.00096976093091
N            3.58859186449410       -1.68339850371706        0.00127581056434
H            3.43528740871420       -2.67695657716392        0.00165557891841
H            4.53062919463472       -1.33067428566321        0.00103921993746
H            2.48121226062526        2.62961830528048       -0.00051903969696
