30
 energy: -54.891719230670 gnorm: 0.000587533592 xtb: 6.6.1 (8d0f1dd)
N           -1.48320544039016       -4.14537153832662       -0.05318431865030
C           -1.71607241001399       -3.01914507947013       -0.05381494820083
C           -1.98167690960305       -1.63406635641163       -0.04943822468342
C           -0.91574169426417       -0.75746911447512       -0.01002342415320
C           -0.91541301334071        0.75795435613004       -0.01044622143742
C            0.49122045356476        0.73873951044632        0.01468526398822
C            0.49090035582166       -0.73884842479838        0.01509983983928
C            1.59192808203641       -1.61238054390982        0.11371530258070
N            1.42112903112647       -2.93280808261765        0.29832064421002
H            0.51408875606534       -3.36867845384747        0.27208328724613
H            2.24739557689544       -3.50474308533209        0.32629500286542
N            2.86213708721790       -1.23180782646219        0.03584465614393
C            3.35186051442072       -0.00069113698740       -0.09067086948980
N            4.67722530703985       -0.00104343149654       -0.35426788665742
H            5.16882750345401        0.87338342889116       -0.38287588628849
H            5.16845194116516       -0.87569466003200       -0.38242387372258
N            2.86266665838231        1.23070044355856        0.03521769144205
C            1.59261932416880        1.61184858499640        0.11290940573685
N            1.42237259033701        2.93241984004746        0.29701568996631
H            0.51552715801185        3.36867502539116        0.27041057492994
H            2.24888061565593        3.50402426091643        0.32469715552246
C           -1.98095818141755        1.63499344987225       -0.05053995402597
C           -1.71471769670472        3.01992957498261       -0.05664634440256
N           -1.48140518377456        4.14607743082165       -0.05510206221248
C           -3.33938337420840        1.26604648565484       -0.08067120465927
C           -3.90643052530699        0.00087506087168       -0.09098272569523
C           -3.33994147609803       -1.26453896330104       -0.07973853610592
H           -4.03673741838607       -2.09388138707873       -0.09730004158983
H           -4.99023066322184        0.00110602730701       -0.11449348799698
H           -4.03580925903295        2.09568403665953       -0.09894172369949
