29
 energy: -50.347753784183 gnorm: 0.000921924079 xtb: 6.6.1 (8d0f1dd)
N           -5.24703266099459       -1.15485596436405        0.02628974242335
C           -4.21864710612059       -0.63396382236955        0.01888402375919
C           -2.94785086269712       -0.03800446715752        0.01035051574011
C           -1.84786060886547       -0.93614016139726        0.00477888299275
N           -2.09030862932741       -2.26508950592856        0.00811868530639
H           -3.03581816433573       -2.60841881266791        0.01030268061385
H           -1.32406444871530       -2.91190674320132        0.00098977454692
C           -0.52838824792606       -0.48435897809361       -0.00327577496473
C            0.01747664078615        0.89362186544228       -0.00098359150339
C           -0.55791190488284        2.14506873527927       -0.00409756367100
N            0.24793927727648        3.22904917982072        0.00579546014914
H            1.24142731841905        3.07942524840039       -0.04178247756039
H           -0.12710331777896        4.15682849201698       -0.06585488110138
C           -1.97229434156600        2.32850598622517       -0.00175356978194
C           -2.95374092858976        1.37842397598438        0.00621740542744
H           -3.96342567732912        1.77877598665620        0.00920233779081
H           -2.30006546971225        3.36050767510981       -0.00406548366372
C            1.33385171520213        0.37747924103144       -0.01108471055338
N            2.52562002211064        0.87577619987971       -0.00914452525050
C            3.61342905481524        0.06489089744183       -0.01873075248189
N            4.78896129224675        0.75432182223407       -0.07035063526516
H            5.63494973291111        0.23629682428472        0.08555993104483
H            4.76982050211559        1.73903139605822        0.12371396053849
N            3.75797379192469       -1.24673061876382       -0.01546598815963
C            2.86828408761837       -2.22482376281505       -0.02113687321420
C            1.47136754947785       -2.21162199669829       -0.02142923320589
C            0.76321032471824       -1.03488842774272       -0.01536009571810
H            0.96515166346043       -3.17086519831408       -0.02062037693769
H            3.34508974945850       -3.20225453645157       -0.01844288830019
