25
 energy: -42.651568748036 gnorm: 0.000359327992 xtb: 6.6.1 (8d0f1dd)
N           -3.52391145825092       -2.14287438349364       -0.00566679542713
C           -2.56928694249374       -1.18244509516267       -0.00973459075914
N           -3.01946253773282        0.03259716651947       -0.01687660004742
C           -2.37095407311345        1.23615249760957       -0.04986313234829
N           -3.25644469028325        2.26094400688653       -0.07737914619941
H           -2.91016270173522        3.20202545753804       -0.07770797940207
H           -4.23840737938564        2.06364796726660       -0.04144033149506
N           -1.11123931292547        1.58224965406930       -0.06157195213517
C           -0.13836378219132        0.66854664516453       -0.03203396938997
C           -0.17205226103476       -0.81561216470054       -0.00573281867102
C           -1.19611541734002       -1.67484030544594       -0.01562828785681
H           -1.04429944634821       -2.74689080807090       -0.02266191708192
C            1.29795610849898       -0.81005502055993       -0.00804236921701
C            1.24896808584622        0.66903588531547       -0.05749880715401
C            2.33194599108263        1.56727637266467        0.12986870747076
N            3.58313076098699        1.28565061147376        0.13071010630201
C            4.15935625976693        0.05462437758373       -0.08843671229915
C            3.69494172408136       -1.21287910429443       -0.02716404307219
C            2.32079912642566       -1.66563550229558        0.07531000595706
H            2.15201865773248       -2.73205925697370        0.14179730656955
H            4.42992819322854       -2.00274379323694       -0.11895885244419
H            5.22552515397069        0.17635087969591       -0.26176649918382
H            2.08657758067890        2.60334054054375        0.35059911336461
H           -3.29118307904939       -3.11484313591747        0.08072562067176
H           -4.48553007641527       -1.85588067577973        0.04234428544809
