29
 energy: -51.137906331501 gnorm: 0.000591314613 xtb: 6.6.1 (8d0f1dd)
N            5.59357768968792        0.06735667611757       -0.02221123981965
C            4.44373119189409        0.07110620827157       -0.01358405589479
C            3.03244046459109        0.09468981876382       -0.00646323554892
C            2.44192183659693       -1.20153615999481       -0.01012248688062
C            1.10791864682384       -1.54167985437083       -0.00363792258661
C            0.74341312158745       -2.90484405475856       -0.01150428758039
N            0.41450859012068       -4.00504823979586       -0.01578972979994
C            0.07388950403038       -0.58089577375640        0.00679401026229
C            0.19575555004118        0.90715445672417        0.00721173420002
N            1.14997832535955        1.75303397183339        0.00547927109713
C            2.46705791913020        1.37916688781660        0.00263166512162
N            3.27782201237720        2.46316249990629        0.01042017116775
H            2.84472601387466        3.36907844533276        0.00786366718422
H            4.27833667356786        2.37115294415919       -0.00017146321614
C           -1.25679038879072        0.99906894334985        0.01006330019776
C           -1.30841566712418       -0.47947956258958        0.01076637663281
C           -2.43223236914256       -1.33041610523171        0.01973853955083
C           -3.71635832280508       -0.90427160556320        0.02022546624502
C           -4.25705954415133        0.44574853888137        0.00729712217660
N           -5.62208428172908        0.47040042499775        0.03541183263553
H           -6.14585872742056       -0.37444126707981       -0.10602599349979
H           -6.10507528201228        1.34417226534040       -0.07656902786805
C           -3.60922817896214        1.65967228464984        0.00342465749386
C           -2.21760921106730        1.94252991041644        0.00937302896012
H           -1.92970519092314        2.98501643751303        0.00705405133118
H           -4.25516239170276        2.52937037508974       -0.00433367771862
H           -4.48187761088404       -1.67087497469621        0.03196710078379
H           -2.24001234817685       -2.39614261060466        0.02739151168626
H            3.15583881750907       -2.01703980122222       -0.01901898731329
