30
 energy: -50.062964384851 gnorm: 0.000603607949 xtb: 6.6.1 (8d0f1dd)
N           -5.19815041867512       -0.32474064266256        0.06474442156127
C           -4.05486104437198       -0.18085248733038        0.01892903243654
C           -2.66239441573644        0.00574761226122       -0.01415956812427
C           -1.89546525515466       -1.24993645109808       -0.03017354504593
N           -0.61565566944593       -1.45978214751622       -0.00530146759085
C            0.28448186850231       -0.46359274631137        0.00679658083727
C            0.16624529787023        1.01184896838872       -0.00692119992124
C           -0.89316826195317        1.82635224246380       -0.01871475683559
C           -2.25255420341329        1.33449067366433       -0.01701707961457
N           -3.20000060437457        2.30532499726977       -0.02427387744913
H           -2.93408325203449        3.27173598839017        0.02188554106900
H           -4.17665589968203        2.06679062960076        0.00497127388270
H           -0.76834290013577        2.90230163232082       -0.02328369301874
C            1.63853735696428        1.08510150399220        0.00881456272905
C            1.66577822695298       -0.38040728309677        0.02842014566587
C            2.76729787686627       -1.29001711302759        0.03578218222721
N            2.42555095127477       -2.60639941694971        0.09195784246260
H            1.45413089490782       -2.83148278240334       -0.04380168144195
H            3.11804102671713       -3.31441630408029       -0.07762335608436
C            4.07214181779974       -0.87029323779669        0.02053387024824
C            4.59207176668157        0.45839947482937        0.01330765997789
C            4.00295373322105        1.68331191289956        0.00447003284658
C            2.60525385339027        2.01291700897446       -0.00345666029133
H            2.34606748374782        3.06345993270851       -0.02249149279881
H            4.66842840168970        2.53727776879128       -0.00149503384971
H            5.67703977346730        0.47790803677848        0.01212606708660
H            4.82304977008880       -1.65184215923005        0.01867446181388
N           -2.65618309273713       -2.38327210569004       -0.12324413092808
H           -3.63866449769560       -2.35246502500856        0.08726562761031
H           -2.16920629703203       -3.25219282553188        0.01169875173951
