31
 energy: -53.791295128233 gnorm: 0.000721357581 xtb: 6.6.1 (8d0f1dd)
N           -4.92505488531208       -1.82360899484348       -0.31445526421703
C           -4.00639296839419       -1.13281441130406       -0.19049183349851
C           -2.88218658134044       -0.31419123919236       -0.06318922001650
C           -1.63497349721096       -0.97595167387893       -0.07607098202432
N           -1.61227929752557       -2.33080031941455       -0.14980314123586
H           -0.73634829121114       -2.79202621463137       -0.31220731829370
H           -2.46591239260388       -2.83148905192555       -0.33235027537609
C           -0.42940925720308       -0.27947628773310        0.01334788465647
C           -0.19511892795472        1.18296252777886        0.03356698724350
C           -1.04818532762195        2.22947976321101        0.04377564911327
N           -2.39189984584979        2.17404386520188        0.10781710551841
C           -3.15089676025187        1.10426586238375        0.09747353708420
N           -4.46331419241584        1.40905316261576        0.25091674965806
H           -5.17941292653894        0.70591342778042        0.19990295065866
H           -4.70622646456070        2.38148099549971        0.31679751356506
H           -0.66735666443842        3.24600706037572        0.02545921395132
C            1.22806550377493        0.93372004974686        0.01821317535049
C            0.95169273866799       -0.53180265769200        0.01499267956730
C            1.85128845716759       -1.57812589754066        0.06680604021466
C            3.23640276489962       -1.40464078386849        0.09064352103835
N            4.02040212699870       -2.53679437333836        0.12954506177397
H            4.99359406883100       -2.37798193985857        0.32988235036040
H            3.61860417703100       -3.38416714803161        0.49189314259497
N            3.98349638135076       -0.29488042877825        0.00501606299654
C            3.66805773923466        0.97177529028526       -0.05633625613334
N            4.74868355432636        1.80522450686464       -0.11622553928289
H            5.64365412706792        1.37827608001146       -0.28219096992364
H            4.62484175391878        2.76576452250104       -0.38064225720207
C            2.38523564923351        1.61875943786794       -0.01031569699676
H            2.37701856769752        2.70132379848542       -0.01183827159962
H            1.48813803243312       -2.59831303987833        0.11071536125491
