28
 energy: -52.213477743020 gnorm: 0.000960129042 xtb: 6.6.1 (8d0f1dd)
N           -5.89291061190343       -1.57763977192235        0.00045101086434
C           -4.79393633909427       -1.25359829624436       -0.00114331678593
C           -3.42517947832343       -0.86457559357845       -0.00040166657375
C           -2.53153830473851       -1.96340988031228       -0.00053865003272
C           -1.15061470496093       -1.96421718471089       -0.00054912823099
C           -0.36446034451379       -0.82813955195712       -0.00046372208282
C           -0.76821612143168        0.61353415777374       -0.00017505548710
C            0.61491082605767        0.98682662097535       -0.00006529306440
C            0.98938863830173       -0.44778332131650       -0.00048671002821
C            2.25851353079697       -1.02734142850082       -0.00113347421012
N            2.39896542560415       -2.36340599282402       -0.00187455793490
H            3.31815258412098       -2.77581130104861       -0.00237912734497
H            1.59079364021136       -2.95900156097634       -0.00190989252881
C            3.42800381460531       -0.20862607416137       -0.00107969884153
C            4.65361912008946       -0.90291318471801       -0.00394207228213
N            5.63372935446710       -1.50458668359009        0.00069823447535
C            3.53999095091948        1.19837940119244       -0.00021729117265
N            2.70004498418746        2.20114123234963        0.00012973616584
C            1.36429892902870        2.12504278745998       -0.00004231722358
H            0.87063951410043        3.09157790765241       -0.00020694594364
H            4.57342570444805        1.54318272343785        0.00003026696404
C           -1.99574579391781        1.21136744560873       -0.00003952059988
C           -2.06351106061591        2.62829029446638        0.00116870739929
N           -2.12092053770916        3.77235644168930       -0.00077124286358
C           -3.22602267937279        0.50548735954999       -0.00017418499523
H           -4.11892478580769        1.11936790955502       -0.00004052917946
H           -0.66531702601496       -2.93313361768572       -0.00078500340380
H           -3.01588100683451       -2.93205116786392       -0.00072045625856
