28
 energy: -45.826989252239 gnorm: 0.000839566985 xtb: 6.6.1 (8d0f1dd)
N            4.33826546711549        1.66187399876332        0.01262550141649
C            3.34738372076458        0.68943426391694        0.04312231297289
C            2.02713959761913        1.13794928204663        0.06405883078746
C            0.91688107458777        0.32621553271979        0.01603289822802
C            0.80858918384321       -1.16452364827682       -0.02568309157882
C            1.76254781929583       -2.12644658825060       -0.05114913845380
C            3.14636297144505       -1.85447563282588       -0.05675424522884
C            3.80350515386536       -0.64853876403221       -0.01797996447785
H            4.88679974300775       -0.72470741923225       -0.03279032114644
H            3.78653670165402       -2.72765771064467       -0.09279150342909
H            1.46008961864606       -3.16599464250535       -0.07319947943289
C           -0.61888929156440       -1.04485975425931       -0.01366665562146
C           -0.48537046954516        0.43181253233945        0.03038359091476
C           -1.50977186035490        1.37298566818736       -0.08451463459744
N           -1.21403119664288        2.69688975451727       -0.18666624674564
H           -1.97129515197924        3.31474712543847       -0.42314986855497
H           -0.27773725248248        2.96722284398512       -0.42677511676074
N           -2.80933427376711        1.09919144373256       -0.05907745033308
C           -3.38883102835860       -0.10404396229404        0.06009099849475
N           -4.72044835726551        0.00370231021251        0.28906335737149
H           -5.14330247474136        0.91325198693644        0.30077914560446
H           -5.27591718349450       -0.83185114704245        0.29753008659748
N           -3.00097977215079       -1.37085475081036       -0.05504431550105
C           -1.74075812824528       -1.80890284486906       -0.11546551570815
H           -1.66298462062730       -2.88604473167133       -0.23424741859306
H            1.88095672375442        2.21186077779957        0.12690997415115
H            4.07665981344937        2.57862513467683        0.33766106055151
H            5.26317807417181        1.37371855404230        0.28796399077318
