25
 energy: -38.644451253475 gnorm: 0.000956438528 xtb: 6.6.1 (8d0f1dd)
N            3.98095145855966        1.57638026267148        0.08546733211085
C            2.94472426483871        0.68019436289629        0.02386578291533
C            1.62258547556446        1.28012338034240        0.02784574189426
C            0.50952979132306        0.54281189391807        0.01946366262853
C            0.27365353830321       -0.93004723905903        0.00655623683742
N            1.10770214395481       -1.97635358766812        0.00644379127721
C            2.39194497103967       -1.82121229929738        0.01407807272044
C            3.23075424827885       -0.66164222242010        0.01618065610169
H            4.28966259095247       -0.90001897735738        0.01460317906322
H            2.93713828429501       -2.76107725050083        0.01156142939639
C           -1.10011381331299       -0.74577032393820       -0.00019683825069
C           -0.94601636505167        0.72544251606707        0.01365719998764
C           -1.82536940017840        1.73444313247327        0.01786887361179
C           -3.25337326055728        1.53597636162750        0.00776962559328
C           -3.95176016011475        0.37619190154088       -0.00782354193397
C           -3.53508035621776       -1.00169508176899       -0.01906512838732
C           -2.27972746989575       -1.51832604968470       -0.01557378767263
H           -2.15411951174283       -2.59336060898743       -0.02456097227303
H           -4.35622480094752       -1.70750868560098       -0.03104374562314
H           -5.03092355370631        0.48876986034733       -0.01266077807273
H           -3.83334030816623        2.45089281996420        0.01350247804656
H           -1.47561892973960        2.75903231793616        0.02904793041850
H            1.57630534326165        2.36271910196181        0.03976273403294
H            3.80249981173171        2.53689418717430       -0.15112146211295
H            4.91369315792784        1.23917730486243       -0.08184803370953
