26
 energy: -42.368588022046 gnorm: 0.000693377663 xtb: 6.6.1 (8d0f1dd)
N           -4.12312303325553       -1.41741059046197        0.08211100792087
C           -3.05104384776602       -0.57146850822039        0.02495712408802
N           -1.86595204338801       -1.28578359229228        0.02296542382274
C           -0.75864323102733       -0.65817662442197        0.02055682568836
C           -0.35250068737365        0.79692619731431        0.01237897893175
N           -1.04975617975358        1.93634943727400        0.00798534436417
C           -2.35375816262453        1.89027541562952        0.01137615326870
C           -3.25732338926147        0.79322014591082        0.01600939607921
H           -4.30229726813562        1.08533631751162        0.01597885167185
H           -2.82179181666049        2.86978201564079        0.00616134504922
C            0.97908343695470        0.42738284069361        0.00247158024537
C            0.65733659962474       -1.00819707963383        0.01109055959390
C            1.43316896088666       -2.10988672259310        0.01242136143859
C            2.85744983014420       -2.06137566074927        0.00307516506432
C            3.68091076865272       -0.96868489326451       -0.00940682037443
C            3.43988095130714        0.42663339747920       -0.01684897623756
C            2.23520735784648        1.09944675681523       -0.01207386257765
N            2.16411895654146        2.44889008059424       -0.02301597251969
H            1.25293189914753        2.87581673633809       -0.00976411102593
H            2.99147284861893        3.01732392233304       -0.02216597749370
H            4.32802111274615        1.04747747621048       -0.02745644928747
H            4.73957597751302       -1.20781016580952       -0.01490987103644
H            3.34802373838817       -3.02623047084846        0.00628408897084
H            0.96571358778205       -3.08535690692631        0.02142688284793
H           -5.04250165621368       -1.07263383444422       -0.12879242124373
H           -3.92947193509410       -2.39020947577911       -0.08063946604925
