31
 energy: -54.579412757078 gnorm: 0.000712082695 xtb: 6.6.1 (8d0f1dd)
N            0.86693728853300        4.13882863161156       -0.02131385600836
C            1.10705807529866        3.01303440357466        0.00622284330963
C            1.41113729960277        1.64215044286509        0.02210472151695
C            0.32462878986702        0.74139284283679        0.01632147395472
C            0.31217127803296       -0.73258260432095        0.01096526029563
C            1.29960838408846       -1.65935893542808        0.01248891256328
C            0.94727660978435       -3.02615480922594       -0.00796567758090
N            0.68423792303970       -4.14402627310691       -0.03386225759559
C            2.71627769408594       -1.32623331939734        0.02333021722043
N            3.55659624082975       -2.40178253388126        0.06608615447414
H            4.54650556688329       -2.26802757289831       -0.03158828030055
H            3.18835042277311       -3.32894837504602       -0.05452905110043
C            3.27393451796708       -0.07141254791952        0.02252070326800
C            2.75294376344488        1.25261885817868        0.03154421416466
N            3.69596273799159        2.24392246505753        0.09662058901222
H            3.39932441138493        3.19701711827608       -0.02838972880668
H            4.65809899360725        2.02916912081579       -0.09173209090027
H            4.36054665464686       -0.08654517344771        0.03030455520029
C           -1.14364976909536       -0.70410291327934       -0.00244804446557
C           -1.06427594652891        0.78089083273536        0.00341447201636
C           -2.11984570354905        1.70553504231864       -0.02501670305213
C           -3.42603258589000        1.34063143943491       -0.04101967136196
C           -4.00529261581086       -0.00583638612100       -0.01163319563932
N           -5.36189584666650        0.00263773631481        0.00470540839435
H           -5.83014615709991       -0.88473329438575        0.06679842877238
H           -5.88948137709329        0.85198201830267        0.08785597461401
N           -3.50368692425119       -1.20607041849524       -0.01378060197347
C           -2.18627139006275       -1.54996252579107       -0.02619656134256
H           -2.03006504657282       -2.62317490748376       -0.04304529454047
H           -4.16508955520702        2.13105078453415       -0.06684870621961
H           -1.86762356653405        2.75879125347068       -0.03782046218947
