28
 energy: -47.418251355920 gnorm: 0.000997352359 xtb: 6.6.1 (8d0f1dd)
N            5.32651682428952        1.86518573826379       -0.00980740220163
C            4.39919074438069        1.18630262193460       -0.00923523689099
C            3.24594929812952        0.37415136070497       -0.00651198700064
C            1.99334842274487        1.10821022309239       -0.01487806834588
C            0.80430228411793        0.50316898822285       -0.01308934522758
C            0.39550080698540       -0.92901561300543       -0.00409041384965
C            1.18234085778422       -2.08278297937616        0.00692139207578
C            2.55236338532030       -2.08422103165860        0.01055594526497
C            3.44981004018168       -0.98410302642206        0.00426731169267
H            4.49585688625747       -1.27547615226548        0.00905646649318
H            3.03515283900976       -3.05239746544029        0.01925621604351
H            0.66453362302679       -3.03402342497046        0.01276836809351
C           -0.94936374380433       -0.57321638927523       -0.00938537684177
C           -0.61611877106555        0.86409385330206       -0.01755667651204
C           -1.35407981378335        1.98205538999183       -0.02111080317979
C           -2.79642712498277        1.99971750030385       -0.01805552493939
N           -3.35436594331849        3.24597252047973       -0.06414194394854
H           -4.34482540824006        3.34748866276450        0.07275404368960
H           -2.78038326330736        4.05118195501119        0.11353159588081
C           -3.64462151413417        0.90933431166456       -0.01644274139231
C           -3.41260387223322       -0.48086799598473       -0.01688854989332
C           -2.22425547521022       -1.18147776675229       -0.01086131538351
C           -2.27651793208170       -2.59197382840988       -0.00367327868982
N           -2.30923744887173       -3.73976100307901        0.00197694329219
H           -4.31168916694095       -1.08537999545569       -0.01675597142084
H           -4.69758727097689        1.17100084133374       -0.01659350268489
H           -0.85993411740582        2.94597930682857       -0.02795172482014
H            2.06913338592793        2.18834311689662       -0.02268984180371
