34
 energy: -62.562529959296 gnorm: 0.000825674742 xtb: 6.6.1 (8d0f1dd)
N           -5.47157537128812       -2.66183925822347       -0.00074400386054
C           -4.59625932490092       -1.91118498005388       -0.00029228042639
C           -3.54214451264322       -0.98964920742357        0.00028920484381
C           -2.23185351553315       -1.53455183613239       -0.00043064551612
C           -1.11033460094905       -0.78411473651625        0.00026624477681
C           -0.88032872584369        0.68428802129597        0.00155276721119
C           -1.86691456657453        1.70234563513489        0.00201565672672
N           -1.51158831563611        2.99770980929728        0.00227663172926
H           -0.55079268482597        3.29882332061352        0.00264719816060
H           -2.24884340771593        3.68151404136261        0.00274709184207
N           -3.17457187416866        1.50937128444087        0.00216339192182
C           -3.89775865825968        0.38402897178048        0.00172362097573
N           -5.22173033723149        0.66401881951160        0.00276025696396
H           -5.49949390013955        1.62906836821249        0.00357228829544
H           -5.90917354794152       -0.06970500499056        0.00237618886137
C            0.50214144284425        0.49538448740641        0.00146781472224
C            0.31513862764313       -0.98458229807748        0.00004774436152
C            1.17423950990462       -2.02029111904114       -0.00124057833836
C            2.59413930711326       -1.90930044624923       -0.00139596376681
N            3.26121699679895       -3.09253542630820       -0.00442178629183
H            4.26591333957348       -3.12212985409448       -0.00193921912639
H            2.75018122231223       -3.95591365921094       -0.00190203863233
C            3.35508022775342       -0.72651273900613        0.00025362689451
C            4.74901477445810       -0.95051533687067       -0.00072868942069
N            5.88281031761660       -1.15098184775872        0.00105786695443
C            2.99525886924146        0.66017559746031        0.00207428404562
N            4.03603634836144        1.54041389700952        0.00455718618402
H            4.98647123875809        1.21649863463489        0.00118555477012
H            3.85687511476292        2.52883751563534        0.00300485582739
C            1.70283215040321        1.21957923478471        0.00231263613460
C            1.61504618306045        2.61906827406499        0.00263621196286
N            1.52224612731696        3.76877895888306        0.00481765619827
H            0.77368177973357       -3.02670617253477       -0.00245989524891
H           -2.15517552950456       -2.61472610043710       -0.00145410613601
