32
 energy: -58.321491067539 gnorm: 0.000824138461 xtb: 6.6.1 (8d0f1dd)
N           -4.33495189372008       -2.56285968261131        0.04200843810214
C           -3.56104786907076       -1.70667629988061        0.02951942804180
C           -2.61492528816091       -0.67291614487339        0.01627167827371
C           -1.25567887100594       -1.10080661308661        0.03618823676182
N           -1.01058227829627       -2.42566149163688        0.07479843335994
H           -0.07040109269045       -2.78309597821406        0.06819241950551
H           -1.77696253027656       -3.07772637842377        0.07721561032227
C           -0.20731568641664       -0.18128783305217        0.01887493419294
C           -0.27829055122785        1.29726475049960        0.01544057466493
C            1.11812293548002        1.38996443902086        0.02028526998596
N            1.98296312779676        2.35999847763235        0.01429513944526
C            3.29201833195055        2.12281813905076        0.00985695729225
C            4.02226958332670        0.94229137664747        0.00258316986466
C            3.65329512907636       -0.41018754083807        0.00160173030929
N            4.67255317874403       -1.32479419516582        0.04370065000483
H            4.47154656376189       -2.29812136846040       -0.10853191780186
H            5.61326563494458       -1.01474158180956       -0.12098299396468
C            2.32566209874009       -0.93366845070432        0.00444311200773
C            2.17516763674413       -2.33077494625767       -0.02200042305604
N            2.03045804452794       -3.47324897122088       -0.05423282337770
C            1.19964529687295       -0.13612692101351        0.02151009906765
H            5.09732330211314        1.09251349581762       -0.00179623710789
H            3.87652379137320        3.03740880462253        0.00813318595460
C           -1.34895084584799        2.18991136206919        0.01381166034298
N           -1.07331340513326        3.50745669676990        0.04244475894186
H           -0.11144057480721        3.80076871899292        0.04043404785214
H           -1.82510024254111        4.17230879869712        0.01927859966885
N           -2.63983867811753        1.86325298459971       -0.01628464846330
C           -3.16933446743680        0.64801255202706       -0.02867505053294
N           -4.52028603336552        0.70783918234136       -0.09118318176440
H           -4.94372833630105        1.61825069073857       -0.10673104168064
H           -5.08799670873662       -0.12143977247763       -0.09058213971341
