30
 energy: -50.059548184047 gnorm: 0.000940864023 xtb: 6.6.1 (8d0f1dd)
N           -5.65912561782489       -0.79230605332236        0.02854857649949
C           -4.53261494923543       -0.55954401218613        0.00182753803231
C           -3.14998858168296       -0.28194525493771       -0.01567573579031
C           -2.35802100677285       -1.47562816117248       -0.01633472721719
N           -1.06909613165187       -1.66929027160328       -0.01707388896354
C           -0.21571560038516       -0.65784147129188       -0.01337754843809
C           -0.37774171752267        0.84941091608645       -0.00804791190056
C           -1.47885070535200        1.61725238566240       -0.01452301691499
C           -2.80688664097924        1.07629409005378       -0.02284250958943
N           -3.81464721391444        1.99716190085069       -0.08031412176330
H           -4.76758815572812        1.69203857330592        0.02593774017205
H           -3.60752084886957        2.96506271258344        0.08802523511801
H           -1.39636348337735        2.69856219481359       -0.01578315543122
C            1.06097232564157        0.95484956627796       -0.00011736402738
C            1.16189414231015       -0.51240145464394       -0.00887764808931
C            2.28841795784162       -1.36960234330793        0.00208959722957
N            2.01488407529921       -2.69385948365963       -0.02783355847540
H            2.74058581318006       -3.38063154887052        0.07183090012279
H            1.04904897336147       -2.97256824741276        0.02025048650074
C            3.58730440595268       -0.90209950788473        0.01805357651520
C            4.07681783887099        0.43136960654031        0.02414594200844
N            5.44483094780170        0.51949274767795        0.08391139455408
H            5.99763702549733       -0.29694536746787       -0.10831123507482
H            5.88023686247880        1.41028242492242       -0.08036028568542
C            3.40057037720294        1.65043365399814        0.02242973353962
C            2.02295836404606        1.91337515400920        0.01608829169059
H            1.72382366690989        2.95425264832329        0.02107133352756
H            4.04156928247308        2.52389390328035        0.03182541300024
H            4.35904265058451       -1.66453647470589        0.02814516368825
H           -2.93762096705545       -2.39415899501862       -0.01344567633798
