26
 energy: -47.170722615822 gnorm: 0.000825251231 xtb: 6.6.1 (8d0f1dd)
N            5.21298567462240        1.69278078127866       -0.08016050240519
C            4.21460939483296        1.12292956416477       -0.06992912881728
C            2.99512839027612        0.41956009217098       -0.05281383471145
C            1.81716546380433        1.18345269041267       -0.00430059498715
C            0.57184242901573        0.61933177832202       -0.01016147649227
C            0.15907574943556       -0.81586398747266       -0.00407010204902
C            0.93480847677696       -1.95251229246639        0.05011318380950
N            0.39562818898447       -3.18072836501055        0.19311677628574
H            1.02280542718195       -3.96340029578447        0.25813354248642
H           -0.58869214406703       -3.30272924585820        0.34093899133792
N            2.29347312024064       -1.99467743608976       -0.06761515865972
C            3.11868333055956       -0.99546370798671       -0.13026443191163
H            4.14778388918118       -1.33434355956008       -0.25294185127611
C           -1.20732485294959       -0.43865323678796        0.04023823947599
C           -0.78100562046615        1.01941554324279        0.05078603480785
N           -1.43859263444030        2.13884619224690        0.10025718976304
C           -2.76597444031389        2.15564981041093        0.15279759999509
N           -3.68983414224372        1.22386978842464        0.06433947154202
C           -3.60897671949539       -0.09538000843435       -0.04413149231995
N           -4.82873849086231       -0.69474859478322       -0.13153648972825
H           -4.91551792415130       -1.66143505611498       -0.38648222041153
H           -5.62656272887248       -0.09134616443334       -0.23000849239275
C           -2.46513542123352       -0.94662221256539       -0.03531953565321
H           -2.63998482091146       -2.01380843504968       -0.12006718431632
H           -3.17886493711188        3.15533821451284        0.25984924973875
H            1.90706639070783        2.26182648461023        0.02749327728961
