27
 energy: -46.890787200577 gnorm: 0.000387285333 xtb: 6.6.1 (8d0f1dd)
N           -1.71217952981804       -3.17608492558082        0.01997784070293
C           -1.68725831853051       -2.02375208469931       -0.00049892443546
C           -1.63421033926099       -0.62248952426534       -0.01087934914826
C           -0.39318105547707        0.00302756489043       -0.00081389927770
C           -0.09135024325281        1.48262030047336       -0.01212891257969
C            1.29951814909055        1.17802105939926       -0.01798155007185
C            0.97665399832386       -0.28069646467015        0.00018689213977
C            1.87045655111264       -1.35530638320198        0.01708261992786
N            1.43541024640849       -2.62568406091895        0.04185564962350
H            0.45284230751741       -2.84918307932447        0.04097128497596
H            2.09793517264442       -3.38203563040214        0.05006876953095
C            3.27217719440305       -1.13514019471695        0.00733508746384
C            3.99888593230529        0.04399410631204       -0.02198266735954
N            3.71333373793789        1.33795734860572       -0.03271706893682
C            2.48577984703131        1.85437800114644       -0.02543406188783
H            2.47063010525124        2.94110865595529       -0.02923211796084
H            5.07791957542493       -0.10631928898188       -0.03657018448778
H            3.86815073047586       -2.04033656707039        0.01866118301166
C           -0.92325218789621        2.55369206930704        0.01405570211803
C           -2.33145989059803        2.43410847932076        0.05268173788161
N           -3.11550984381639        1.39105127287375        0.02801334706032
C           -2.87167754562798        0.08476388926625       -0.02827766164427
N           -4.01813119707450       -0.65069221565857       -0.13240271857107
H           -4.88451130845262       -0.15424167280597       -0.02394448794482
H           -4.00429575537833       -1.64824180892141       -0.01365831011211
H           -2.88908672177548        3.36536713052063        0.11174689200797
H           -0.50687408276799        3.55241401264737        0.01882337587369
