31
 energy: -58.599520497769 gnorm: 0.000880363956 xtb: 6.6.1 (8d0f1dd)
N           -5.46726339960944       -0.74131310538886       -0.04424509623157
C           -4.32730339587320       -0.57853910044993       -0.02204865986881
C           -2.93188870083633       -0.38043797724459       -0.00416502341293
C           -2.17467568713203       -1.61663247429963       -0.00037540757379
N           -0.87686863966180       -1.82570474363175       -0.01398387482922
C            0.01002651309602       -0.84760137548132       -0.01038514083659
C           -0.09949434055590        0.65842597621944        0.00548173509619
C           -1.19053298358456        1.46993704202805        0.00732868221048
C           -1.00446512883423        2.87005017097072        0.01320571867555
N           -0.86498586329221        4.00998979002468        0.01695526405640
C           -2.54426528201741        0.96605842034991        0.00063609560470
N           -3.51434624019875        1.91409906269118       -0.00398647079178
H           -4.48557098078574        1.65466441037317       -0.00128884361235
H           -3.26693896513074        2.88840663219953        0.00346899946061
C            1.32920130475233        0.73441442232515        0.00571353707751
C            1.38974159028070       -0.75266023995622       -0.01801214145422
C            2.53939037173096       -1.57964648242550        0.02269780051035
N            2.34494205778268       -2.90968012200238        0.05884840503578
H            3.13593655479437       -3.52661358233371        0.10851248477890
H            1.40502346915019       -3.26516046829153        0.06228018516816
N            3.78249346827547       -1.15221187246118        0.02809929794196
C            4.20258567367445        0.13948756962407       -0.01035288081760
N            5.55005691859870        0.19314742278114       -0.09224298444985
H            6.07612114843966       -0.66127766742913       -0.10964604980484
H            5.99937183231906        1.09077399023997       -0.10849206973959
N            3.65100943125773        1.33921323981476        0.03540769173355
C            2.34304985794611        1.63569523876310        0.05571375479492
H            2.13619082065402        2.69966734281693        0.10583173737185
N           -2.90608860835640       -2.76437620064921        0.04839870890224
H           -2.40403363091672       -3.62843574290045       -0.04662858851398
H           -3.90275200476636       -2.75648872587660       -0.07371533848199
