28
 energy: -51.426589993537 gnorm: 0.000805801838 xtb: 6.6.1 (8d0f1dd)
N            6.38757678167133        0.68516438596413       -0.04157613947665
C            5.25200776805322        0.52436268239083       -0.03283968301005
C            3.84870879113128        0.31477088771517       -0.02129129023072
C            3.09788816297807        1.49736487767140        0.02535298899663
N            1.77990892160562        1.69062416425793        0.03263469051476
C            0.94025049753015        0.71120669850593        0.02005516422553
C            1.05753373283063       -0.80526856505092       -0.00136473907527
C            2.19146663888662       -1.58213024929167       -0.05150439615846
C            3.47038919341328       -1.04250479601421       -0.06056043405542
H            4.29498616027165       -1.74437430018157       -0.10126319007825
H            2.10939215230640       -2.66276773421313       -0.09326703949860
C           -0.34409200340778       -0.88899703632278        0.00264915022218
C           -0.47651642969392        0.58095579413151        0.01849643221532
C           -1.58325327030188        1.38262258412091        0.04329277764011
C           -2.89526840546349        0.89406225542038        0.02427760452150
C           -3.91952543968844        1.85615592846857        0.04296457615550
N           -4.77020709704141        2.63154999979416        0.06061773569012
C           -3.32597911897555       -0.47854854167747       -0.03503761541959
N           -4.65730368537677       -0.67067915093147       -0.12764024528603
H           -5.29930936907892        0.10369544194564       -0.14818718912496
H           -4.99812190538109       -1.61555947581282       -0.15995182768639
N           -2.66391900268402       -1.62684826850292        0.00190255580569
C           -1.35472051353554       -1.86001742350144        0.03896842343688
N           -1.02782855496184       -3.16514909407460        0.10468644490495
H           -1.76541176405696       -3.84556856889108        0.15467098906746
H           -0.06918243195571       -3.45236339653645        0.16786719176556
H           -1.44979875408720        2.45615797537952        0.07193668165695
H            3.66190180331227        2.42359954053650        0.05382968178128
