29
 energy: -50.352702949781 gnorm: 0.000560755256 xtb: 6.6.1 (8d0f1dd)
N           -2.55871682023278       -3.36185570438528       -0.02023222804515
C           -2.51615483841312       -2.21167760208623       -0.01172188532682
C           -2.39891870806477       -0.80816146564924       -0.00134452699641
C           -1.14024331517745       -0.24126816336921        0.00804047899157
C           -0.78809011886573        1.25299138331013        0.00795073416930
N           -1.46291494009543        2.35850395911652        0.00896565588372
C           -2.79695166000510        2.37116831617682        0.00861758357932
C           -3.72971715789264        1.33446715365043        0.00170003343044
C           -3.58515012537773       -0.04640539577924       -0.00413284713367
H           -4.50330816278799       -0.62229419100227       -0.01175667078844
H           -4.75973361137549        1.67438277084994       -0.00032631670530
H           -3.19973044299844        3.37880116084794        0.01264385972853
C            0.57095841443876        0.90126593278646        0.00590615158936
C            0.23295228264074       -0.52913972423072        0.00756623551661
C            1.11510093515569       -1.62485722968517        0.00898198579981
N            0.62705464462149       -2.88364433933569        0.02649880492996
H            1.25343801874600       -3.66824358935175        0.00573880648992
H           -0.36388489842475       -3.05892406793843        0.01298210519746
C            2.50020459511573       -1.44151476094406        0.00000909641657
C            3.28229210946408       -0.27114905940283       -0.01165702787872
N            4.62816773745851       -0.46985871501032       -0.05715749535110
H            5.21378647240809        0.34250589674267        0.01682901963509
H            5.02917974593515       -1.38153323510053        0.06313758166528
N            3.00007834593204        1.03340091847496       -0.00618845477305
C            1.79249026388811        1.58528469543010       -0.00001337155341
N            1.75017613324281        2.93120843094791        0.00721558502102
H            0.85258600375455        3.38497050614187        0.00179964355993
H            2.60525227354364        3.45671356667279       -0.01271209564128
H            3.07988367936683       -2.35820205307603       -0.00372621251083
