31
 energy: -54.582103928492 gnorm: 0.000664973473 xtb: 6.6.1 (8d0f1dd)
N           -5.44733086248911       -0.45061157284699       -0.04495756398356
C           -4.29635401542450       -0.41008948978951       -0.02157630738263
C           -2.88649008436034       -0.37914258586424        0.00044520986333
C           -2.29493791159646       -1.64605347053335        0.00494834814396
N           -3.11075491233210       -2.73036249932864       -0.00816611195209
H           -2.72005487269235       -3.65445984213393        0.00504457964370
H           -4.11089810559731       -2.62653863959658       -0.00915575771377
C           -0.89415101025995       -1.96341632267556        0.01701397807232
C            0.09063738148038       -1.05384129611590        0.01893650619273
C            0.08995327601781        0.41943122938111        0.01154286218623
C           -0.99464383044646        1.32539953043392        0.00709047744417
C           -0.67332871477400        2.69387571560688       -0.00559605873200
N           -0.40975221020912        3.81418461149836       -0.02358619037269
C           -2.33910137534070        0.96143570927731        0.01131065940039
N           -3.25894788656395        1.96831087496300        0.05073499616650
H           -2.94227308037760        2.92000318927262       -0.01527039459681
H           -4.24003476660939        1.77658828846064       -0.04362274092277
C            1.47645952610836        0.45327994755271        0.01190204089020
C            1.55314763275197       -1.02856511447093        0.02084231098706
C            2.59435101373814       -1.87314160135122        0.03240516491918
N            3.91555990292310       -1.53348873266471        0.00772064069860
C            4.41913967193667       -0.33591366046776        0.00133023040601
N            5.77653705147495       -0.32576762406785       -0.02476891357899
H            6.24861026181616       -1.21066040190655       -0.08911917556343
H            6.30094888039521        0.52485824639029       -0.10885589771541
C            3.84022362309031        1.01200915382779        0.03203448378084
C            2.53614426286037        1.37790909915776        0.02717761154685
H            2.28443392705368        2.43122187379703        0.03990996464357
H            4.58086070113684        1.80132734127356        0.04994324589661
H            2.44235683324520       -2.94719228294407        0.04971550485925
H           -0.64483171805619       -3.01725139823562        0.02116362777246
