28
 energy: -52.220034469751 gnorm: 0.000845468811 xtb: 6.6.1 (8d0f1dd)
N           -3.20202061895431       -3.89355083546650       -0.00261081587963
C           -2.66437343001826       -2.87976441302285       -0.00072249702999
C           -2.00053069908736       -1.63085156191729       -0.00062288753839
C           -0.58254276221525       -1.69124005969938       -0.00043861624225
C            0.20160374693377       -0.58527970317619        0.00020396696698
C           -0.12834450201099        0.85606528393118        0.00085507588005
C            1.22750655606776        1.20090241994585        0.00126216157091
N            1.91017988385207        2.32138179336012        0.00197471478833
C            3.22336728060184        2.33861634438896        0.00222932894689
C            4.17599214996283        1.28680709534688        0.00187212814258
C            4.03843961574900       -0.07763334170079        0.00125191143523
C            2.83047707652754       -0.84462826822221        0.00070771176385
C            2.94009416373950       -2.25704796187417        0.00147117278113
N            3.01916455802790       -3.40062620386022       -0.00210631556347
C            1.60153255592656       -0.26238777665974        0.00063533833675
H            4.95007695162630       -0.66236269059793        0.00128428367769
H            5.20044531068910        1.64082846232977        0.00228816562793
H            3.63363791525226        3.34255285632318        0.00287576232997
C           -1.34062893566834        1.55066571665733        0.00101046959146
N           -1.29772801425190        2.88829545508409        0.00173174315126
H           -0.39589954739878        3.33877419977714        0.00213967362041
H           -2.14248070772438        3.43699859710862        0.00190130346853
C           -2.59024774231758        0.86345289955274        0.00045358647497
C           -3.73375915904540        1.68893737786118        0.00069159843751
N           -4.63903887736780        2.39719626754670        0.00088311621168
C           -2.83474239049123       -0.51492898876901       -0.00023279283647
H           -3.89363471804159       -0.76079235948957       -0.00045769190099
H           -0.12500912296325       -2.67260271165788       -0.00077433481295
