33
 energy: -64.428026230305 gnorm: 0.000591754369 xtb: 6.6.1 (8d0f1dd)
N           -4.35931489790434       -3.83258208049853       -0.00006022377601
C           -3.75105210831540       -2.85970991369157       -0.00047425719759
C           -2.99296173306432       -1.66720517932827       -0.00013701618797
C           -1.57217104586130       -1.83362375833751        0.00005790144895
C           -0.71281260652354       -0.79976423951763        0.00020203852087
C           -0.84893133615395        0.67392935108087        0.00019808592654
C           -2.02583783658213        1.46288611760027        0.00008062374482
N           -1.93853295294266        2.79957709910927        0.00010868304213
H           -2.78191609792119        3.35246512884830        0.00001737565233
H           -1.05188292407770        3.27956604877768        0.00015830587269
C           -3.31140609694315        0.86936843611042       -0.00001604016084
C           -4.39481036098924        1.77520115310459        0.00061421795605
N           -5.26500437876721        2.52601908846908       -0.00105640352202
C           -3.70516224412480       -0.48688442931177       -0.00011172057054
H           -4.78433306621234       -0.61275016902139       -0.00018556114716
C            0.54188641551966        0.83464032909580        0.00036849498156
C            0.73347432342450       -0.63380640594843        0.00041242091819
C            1.81358126118789       -1.44928373372658        0.00055661363585
C            1.59210244858469       -2.84939085763930       -0.00020480536062
N            1.43838339548928       -3.98570897440264        0.00142396850726
C            3.19603022514947       -1.00640658491037        0.00070232744228
N            4.12883953866505       -1.98368058001709        0.00072397906847
H            3.85740196793863       -2.95245122515569        0.00065372643744
H            5.10798811433755       -1.75012580138003        0.00077156061959
C            3.61533854249365        0.32917625586824        0.00072246007534
C            5.02086873746605        0.51245517851753        0.00004732147035
N            6.15994116942133        0.65464243865997        0.00157507544049
C            2.90614957381679        1.55583878630777        0.00063676958871
C            1.55009631439899        1.81916543207981        0.00049700672143
C            1.17724996762996        3.17905023101251        0.00040892847329
N            0.84731080253803        4.27998055327588        0.00027842105030
H            3.55014841205538        2.42836661397151        0.00059518252938
H           -1.19321829193362       -2.84713213180271        0.00008596509841
