29
 energy: -51.142441550852 gnorm: 0.000650314892 xtb: 6.6.1 (8d0f1dd)
N           -4.37804330839977       -3.23591113465274        0.04566662541939
C           -3.63503012663676       -2.35816732441003        0.03292682953786
C           -2.71426131162833       -1.29307507091557        0.01787360651383
C           -1.37045308974858       -1.63966953006302        0.02361535776488
C           -0.32989440940879       -0.73098015789540        0.01167497624331
C           -0.36072174589709        0.75861791644628       -0.00413101344639
C           -1.34727073652584        1.65092690220545       -0.01831589359366
C           -2.75894714475608        1.26570465431824       -0.01980452757332
C           -3.65775470745364        2.35169405495061       -0.04088929725952
N           -4.37176556883389        3.25201249939665       -0.05833199130405
C           -3.30610825929737        0.01553534483804       -0.00345788878260
H           -4.39255118560176       -0.01070779343931       -0.00705762803539
H           -1.14278108254714        2.71367407078573       -0.03072195601534
C            1.10683958505949        0.74272817890242        0.00001082332396
C            1.07523955202338       -0.73062840016913        0.01293826320840
C            2.13393204583035       -1.62725677102260        0.01246854725429
C            3.46913086501139       -1.23648001150068        0.00315965468409
N            4.42890498757443       -2.20701077067780        0.03693217065901
H            5.37989615015181       -1.91703917905376       -0.10562822287922
H            4.18418720453799       -3.16270340406167       -0.14789118356971
N            4.02292294873419       -0.00383629332918        0.00767067228228
C            3.50889809139421        1.18971065670483        0.01318243173984
N            4.41985495944346        2.19263795804055        0.00634984125106
H            5.39308377267664        1.95086628787958        0.06805687462164
H            4.14342277156815        3.15292393510663        0.09592940945222
C            2.12025423873199        1.61744320746102       -0.00030794879921
H            1.93071269553555        2.68279316442217       -0.00976518785876
H            1.91820205538408       -2.68712892272022        0.01809851972060
H           -1.12979806242209       -2.69662248914712        0.03896996314055
