32
 energy: -54.305642835693 gnorm: 0.000700193678 xtb: 6.6.1 (8d0f1dd)
N           -6.14400382359837       -1.14637105514869       -0.02869757639086
C           -5.01907852235869       -0.91260474642312        0.00325708902133
C           -3.63278944775839       -0.62819134960076        0.02248446829206
C           -2.84609936298677       -1.78538396650745        0.05095535294020
C           -1.45825250277221       -1.92048132112882        0.05238188475932
C           -0.59130286492386       -0.86750631428599        0.03223567550056
C           -0.84230260981883        0.61165693919566        0.01193252169237
C           -2.01480032962657        1.31228106096461       -0.01518791166645
C           -3.30452587844703        0.75369783818530       -0.00590400248993
N           -4.35291745724075        1.64462779013485        0.03392919158886
H           -4.17543299139137        2.59866025136724       -0.22717872620847
H           -5.28264566363940        1.29873812189256       -0.13727736915629
H           -1.97920440074539        2.39667738827164       -0.04929876637819
C            0.55547796179333        0.84105046359522        0.00656730975517
C            0.80620527721980       -0.61938079480532        0.01806721977134
C            1.96110499269275       -1.34802363452916        0.00755604623808
C            3.25086654021158       -0.80782843860110       -0.01580865862705
C            4.29464136173734       -1.74455053512215       -0.03808092903195
N            5.15508885594553       -2.51191414587261       -0.05877925335841
C            3.63802940465612        0.58015763255966       -0.01902680216868
N            4.98151534672601        0.78701917279071       -0.02954968414123
H            5.61391390127979        0.00622423646764       -0.06481105598641
H            5.35575368555252        1.71738663100688       -0.06162509853675
C            2.84909688236268        1.72270974034273        0.00310561868025
C            1.44941893586668        1.89710588608594        0.01459708645720
N            0.97978190346402        3.17751866126500       -0.01120485121523
H            0.00883350656977        3.33078371713592        0.19093668456858
H            1.61421461458003        3.93420613925656        0.17727786009094
H            3.41241048399624        2.65065324656582        0.00597953849491
H            1.89043225440433       -2.42951835529514        0.01418771191737
H           -1.05645786251287       -2.92547544079627        0.06793648844484
H           -3.41388935883910       -2.70828046896706        0.06611150684242
