21
 energy: -35.742335699657 gnorm: 0.000525923008 xtb: 6.6.1 (8d0f1dd)
C           -3.54857556283575        0.00475506329491        0.00299882899454
C           -3.00920943409320        1.25777437076036        0.00280907894065
N           -1.69924159310455        1.66414631663085        0.00242476618048
C           -0.77518481533071        0.78625433344662        0.00212219702122
C           -0.72570740820791       -0.72550011162632        0.00228859740091
N           -1.68600712072384       -1.64806243617100        0.00267866905980
C           -2.93519251304806       -1.29793522286852        0.00291581635511
H           -3.62573816218842       -2.13432640836125        0.00313592582321
C            0.66108226600358       -0.69354742672566        0.00195872328433
C            0.68161003920295        0.79005147959354        0.00168812326819
C            1.70459997166500        1.66122505838622        0.00098250596434
C            3.07312794886303        1.22573827402076        0.00084126179992
C            3.56741365298748       -0.04371881660221        0.00115003946579
N            3.01367922054672       -1.29197740655021        0.00088539870077
C            1.75597157266288       -1.58588411895878        0.00119043856403
H            1.53367565682111       -2.64976507169583        0.00066654347377
H            4.65167128718015       -0.12802098010086        0.00141019429394
H            3.80855302608737        2.01976422982061        0.00067355371170
H            1.51233530156629        2.72505847829463        0.00073141118140
H           -3.68751889265800        2.10324846851409        0.00296595647609
H           -4.63201798629608       -0.02991454880193        0.00332256693973
