26
 energy: -43.180513905533 gnorm: 0.000539262583 xtb: 6.6.1 (8d0f1dd)
N            4.71835183988158        1.43560827536778       -0.00117726477995
C            3.77262178365182        0.77893776309618       -0.00006557060463
C            2.59168764198918        0.01577553380371       -0.00111483235729
C            1.38041942225750        0.75543203887187       -0.00133303191202
C            0.13367791708595        0.12144439691729       -0.00168897266690
C           -0.26457320797966       -1.29935672236139       -0.00194059854033
C            0.47926318627946       -2.43476332575551       -0.00191675375513
C            1.89003805400781       -2.44532955810355       -0.00162098197598
C            2.76771766002856       -1.38576237283592       -0.00126323373049
H            3.81595307392971       -1.66936382358424       -0.00098659410978
H            2.34660979662111       -3.42641263257126       -0.00160074907056
H           -0.02482298274493       -3.39279929402183       -0.00211987384902
C           -1.65227889142410       -0.91096556542824       -0.00219590365365
C           -1.20108975085045        0.53280114107667       -0.00192614598171
N           -1.82457441475746        1.69027169467010       -0.00192525172592
C           -3.13528402025895        1.76963824778054       -0.00221209223341
C           -4.13596085199894        0.76310122178681       -0.00256420217607
C           -4.05742674394784       -0.60717938692619       -0.00271012374489
C           -2.89610578396196       -1.43023390768626       -0.00253983514656
H           -3.04420604183580       -2.50316154270351       -0.00269896184986
H           -5.00079910900003       -1.13934778212275       -0.00299463561925
H           -5.14261745306067        1.16656326938213       -0.00275048511985
H           -3.49869005530568        2.79212292901940       -0.00217289712915
N            1.39334533147551        2.09781000130544       -0.00112981651666
H            2.25938683364759        2.61029762930239       -0.00086947036356
H            0.50911591097064        2.58048969282037       -0.00128705288741
