30
 energy: -50.065052124408 gnorm: 0.000759209350 xtb: 6.6.1 (8d0f1dd)
N            1.09836039873359        3.89083795005438       -0.03519165466938
C            1.39147693447986        2.77690849521637       -0.02940710215702
C            1.72391263936732        1.41120877697011       -0.02148565706673
C            0.68768467147687        0.46334167377048       -0.00249091318199
C            0.82091530236692       -1.02741646311926       -0.00763187798458
C           -0.61871803408072       -1.12375121599005        0.00471231102197
C           -0.70024183757182        0.35366826051311        0.01060549380933
C           -1.87380699155012        1.14514435912850        0.03707841970710
N           -1.77085476700941        2.49163638826130        0.06702635125592
H           -2.59818405676302        3.06084635018805        0.07475362486285
H           -0.87502474948523        2.94925356253088        0.04456423446472
C           -3.13658525333009        0.56777189556314        0.03804830866799
C           -3.54059756034523       -0.79280177390127        0.00974016240826
N           -4.88963863676850       -0.98858832397238        0.02602974633843
H           -5.53119273660730       -0.23203396782710       -0.12250287807185
H           -5.20947533694713       -1.93466552810281       -0.08514047282846
N           -2.89011305791074       -1.94717568186781       -0.00220371042767
C           -1.56155375274404       -2.09845227229277        0.00568173149588
H           -1.25153972165455       -3.13980178593428        0.00162039108529
H           -3.96299348191500        1.27056373830716        0.05926382406022
C            1.87616704747251       -1.85989648097420       -0.01710688417941
C            3.24425298630505       -1.44387303269201       -0.02166728527001
N            4.16707443702492       -2.46244466043885       -0.08010393593915
H            5.12981489392877       -2.24396112032509        0.11132039412450
H            3.86524789405176       -3.38977400399689        0.16393676857520
C            3.72358561223540       -0.14358146603582       -0.02863059108531
C            3.07870333335477        1.09778964778290       -0.03481304437919
H            3.74555331156017        1.95241200975425       -0.04671558371032
H            4.80672424284261       -0.07242712844324       -0.03523909114084
H            1.69607153978228       -2.92868788052664       -0.02035466498567
