32
 energy: -54.308012857015 gnorm: 0.000972493595 xtb: 6.6.1 (8d0f1dd)
N            5.28074089668178        1.26545116698486       -0.02966386491291
C            4.24885845981265        0.74664212480913       -0.01408791049956
C            2.98847814844998        0.13657966255122        0.00218098777584
C            1.88812290664986        1.04520124673062        0.00389391307745
N            2.16288038324654        2.37181642463065        0.01293203867438
H            3.11308063528762        2.69648542183663       -0.04021466981741
H            1.41096384978151        3.03092555508181       -0.05071272735669
C            0.56776880753545        0.62830090974282        0.00810611674911
C           -0.02312388235864       -0.73061660616883        0.00042494150645
C            0.55449910610409       -1.97169169329177        0.00686911915814
C            1.92228494288771       -2.20214453989809        0.01591402664466
C            2.99096446378287       -1.29074945942361        0.01187863857618
N            4.22537982977797       -1.85929431356344        0.01470169544617
H            5.05358618978693       -1.28939998154898        0.01200213001014
H            4.32094452156777       -2.85812720982525        0.01886165731447
H            2.22687297448865       -3.24148526864685        0.02389491631969
H           -0.09658898687413       -2.83664840133862        0.00617139215402
C           -1.32459901436013       -0.16933010702982       -0.00791337629596
C           -0.72485691452059        1.20514859761499        0.00545761256254
C           -1.35013292112096        2.42290900405574        0.02883512215831
C           -2.73590337016079        2.59205381683657        0.02539907638413
C           -3.75701833124681        1.65244236635909       -0.00510853592471
C           -3.76866390962997        0.25444114970506       -0.03443950242395
N           -4.99714505380946       -0.35629655452489       -0.13233427329169
H           -5.81812247469327        0.18583297964775        0.07218459917078
H           -5.05397314576502       -1.34645702406987        0.03861541558920
C           -2.62879403651802       -0.60211683798277       -0.02426275318977
C           -2.85241884965609       -1.99606950197623       -0.01886272192219
N           -3.05074746304589       -3.12771725848177        0.00154557765939
H           -4.75385599415535        2.08268149427520       -0.00988171160309
H           -3.07421000307341        3.62066553442041        0.04938042357270
H           -0.75255760415287        3.32688377918836        0.05619119923421
