26
 energy: -47.963724232613 gnorm: 0.000538952758 xtb: 6.6.1 (8d0f1dd)
N           -0.79343368785768       -4.24059798097814       -0.00155933323695
C           -0.17333009889024       -3.27503504141773       -0.00280962394867
C            0.57353787140433       -2.07779615936073       -0.00235393478421
C           -0.13684533765524       -0.84865252587643       -0.00192358608703
C            0.41145620612767        0.51052493086860       -0.00225005451981
C           -0.96508527659092        1.03749100448875       -0.00193160111856
C           -1.44093519003626       -0.36110407131859       -0.00151978259966
C           -2.77876932295339       -0.83387364384392       -0.00172364238612
N           -3.85169660746201       -0.12581251416949       -0.00142649268826
C           -3.95124129031368        1.24246040241005       -0.00080010314812
C           -3.05695947064786        2.26283313163508       -0.00144643011156
C           -1.61377806822540        2.20638600956397       -0.00214925911685
H           -1.07109531207412        3.14143775642751       -0.00262651608166
H           -3.47291161341501        3.26164350614281       -0.00124600797517
H           -5.00005385212834        1.52708383154153        0.00006975543970
H           -2.93215217948495       -1.91030876069887       -0.00233402098749
C            1.67061534490580        0.99362303843026       -0.00250807053923
C            1.90265688721815        2.38318273334743       -0.00161813211185
N            2.12816609199057        3.50968665104346       -0.00445266289562
C            2.84722187789349        0.09052542444508       -0.00243146427062
N            4.04314293356097        0.71392329003419       -0.00186957125906
H            4.87132281709650        0.14369027885147       -0.00182856157710
H            4.11905320881011        1.71656863905309       -0.00177721231524
N            2.89680855099425       -1.20279038128475       -0.00280447640477
C            1.94875031702671       -2.15405049191169       -0.00299450739445
H            2.38652129320662       -3.14779740642297       -0.00360756978157
