28
 energy: -51.411760787166 gnorm: 0.000810704912 xtb: 6.6.1 (8d0f1dd)
N            5.13952934412169        1.53184208857982        0.00142684312672
C            4.03495969716766        1.21394388293687        0.00204978447636
C            2.67658152714515        0.82427463007955        0.00170966766464
C            1.78862098487387        1.95648158120952        0.00243026727002
N            0.49604057844798        2.04992893157832        0.00276151594107
C           -0.28523702363948        0.97349501056347        0.00238703667423
C           -0.00880814550654       -0.50196432220410        0.00148536572416
C            1.14727543483076       -1.19959395428727        0.00093130827730
C            1.11127184029539       -2.61355213931807        0.00063341902827
N            1.10118701732753       -3.76106284848355       -0.00092362599226
C            2.45493930880848       -0.55375550375032        0.00104887107565
N            3.51851351408386       -1.39164748484218        0.00055163094352
H            4.45331821077465       -1.01970875227678        0.00070353922120
H            3.38430586695831       -2.38812727913932        0.00015527738989
C           -1.44568748883552       -0.73066634372591        0.00175257158293
C           -1.64765752041647        0.72988183107903        0.00263347137370
C           -2.85802304049065        1.47277015593263        0.00362951422885
N           -2.74251477682963        2.81226913342108        0.00443804969089
H           -1.82069473679744        3.21696676430212        0.00434812349648
H           -3.55303599282199        3.40596849831948        0.00516185719890
C           -4.08936306792270        0.83293926707899        0.00365095659356
C           -4.37115313546639       -0.55301844591392        0.00257714020497
N           -3.67399218527533       -1.65269638719491        0.00177999187020
C           -2.32387843497244       -1.75723986891249        0.00157542321989
H           -1.96950582191558       -2.78266600937885        0.00110932719840
H           -5.43926655768880       -0.76859018988556        0.00241198479667
H           -4.96033040391743        1.47660404157534        0.00438777628981
H            2.29834527466106        2.91490270585705        0.00284828503397
