29
 energy: -55.148583225248 gnorm: 0.000845597968 xtb: 6.6.1 (8d0f1dd)
N           -1.52513202712113       -4.07790896982208       -0.13004298369975
C           -1.47277592240845       -2.93167822895789       -0.08154502745627
C           -1.46672866734724       -1.52265083409112       -0.02080302388075
C           -0.29105045378431       -0.84929045757032        0.00830679198904
C            1.12271112002147       -1.13836403397544        0.02416710529934
C            1.38203318222311        0.32699958254278        0.15312150686559
C            2.65808205554567        0.94294041513286       -0.05202500297704
N            2.72956291238479        2.24071155677114       -0.38553612783571
H            1.93684089672540        2.85751673803303       -0.30414456058364
H            3.64458253820277        2.63107361440360       -0.53698251218778
N            3.79634636720645        0.29332635775998        0.03899255007727
C            3.98096113682555       -1.00884919547954        0.29059898583815
N            3.30611465642163       -2.08808295630160        0.06436625219523
C            1.97748785681305       -2.16564155296570       -0.17889523778901
H            1.62129336686736       -3.15521446400344       -0.44045086654224
H            4.97929640916336       -1.19800504398584        0.68620786212439
C            0.02306848274541        0.60451735134097        0.09671407959222
C           -0.87124679074227        1.69129523068755        0.11917878325364
C           -0.34050129966621        2.98418821688843        0.18198473840222
N            0.11974603296274        4.04124795917079        0.21724531665624
C           -2.27044643656809        1.54316642331464        0.05623870621362
N           -3.03269727120280        2.66666045420899        0.03202078630256
H           -2.61500961155181        3.57974991484637        0.04848077910399
H           -4.02964926788088        2.56460519165385       -0.01425973185798
N           -3.02303642514234        0.43399481386988        0.02878218605229
C           -2.75860330455601       -0.83855966009446        0.01076907765545
N           -3.84555993644985       -1.64124592834199        0.01564121586869
H           -3.75745568958013       -2.64241807622714        0.00224593371651
H           -4.75429499610753       -1.21377862860800        0.03896909640315
