33
 energy: -57.240087938486 gnorm: 0.000738993191 xtb: 6.6.1 (8d0f1dd)
N           -1.53955630546443       -3.69391836900401        0.02856338670829
C           -1.66446005670891       -2.54736254943350       -0.00991457205500
C           -1.80472308093460       -1.15314372349662       -0.03146710426017
C           -0.64735314639114       -0.37874749728345       -0.01641050285174
C           -0.50502598445647        1.11989905088855       -0.01055733534182
C            0.90637521244055        0.96758109216945       -0.00067913809404
C            0.74479138941118       -0.51250021317643        0.00635584070408
C            1.76901932293966       -1.47504078991581        0.00087399121830
N            1.48986081523019       -2.79325152018967       -0.02411783661149
H            2.26596549435251       -3.43106532910685       -0.02569645374856
H            0.54717100347844       -3.14398733715091       -0.02463909113772
N            3.07012581003505       -1.20330183653585        0.02417417403670
C            3.67774518550483       -0.01149593279011        0.03200266366849
N            5.02747827194279       -0.15066034101224        0.07367234344661
H            5.41551809475021       -1.06933243930315        0.17910513734513
H            5.59748418789982        0.67070507733262        0.15356991394781
N            3.30757736748693        1.25793757944771       -0.02852741035157
C            2.05178932931306        1.73155618177186       -0.05087807179273
N            1.98414470352314        3.10014228979080       -0.07131784370399
H            1.13229537496832        3.52105514282678       -0.39927591551064
H            2.84670167181038        3.56677806485236       -0.29810131337427
C           -1.42945282472643        2.11190960806906        0.02657242925464
C           -2.82909026339013        1.91213852521788        0.02603726512696
N           -3.59547170778791        3.06457845356587        0.00008425538116
H           -3.15660144998009        3.91127637854541        0.32211602816398
H           -4.56917973694565        2.97656792633586        0.23945084307959
C           -3.52006255729300        0.70657814176602       -0.01239979980838
C           -3.12303174731296       -0.63449204766248       -0.05645422826262
N           -4.14240492577669       -1.55765404666903       -0.17688994102936
H           -3.92379322221419       -2.52340077586548        0.00568022816022
H           -5.07496926414467       -1.26550574885361        0.05908749074006
H           -4.60042598280215        0.82682416506108       -0.02071633576869
H           -1.09333707865654        3.14226564610834        0.06474046202148
