32
 energy: -57.526471270722 gnorm: 0.000898697084 xtb: 6.6.1 (8d0f1dd)
N           -4.76928929447271       -2.18518141768058        0.04946329974031
C           -3.88412962479981       -1.44243897748941        0.03955381798338
C           -2.79981639778053       -0.56231313609764        0.02244837393792
C           -1.51895000925569       -1.15813717464712        0.01061183294440
N           -1.38709969229505       -2.50100645105596        0.02393386473658
H           -2.19274532824741       -3.10096469201260       -0.01482215426861
H           -0.45781948058833       -2.88215379577471       -0.02132955445981
C           -0.35350910860058       -0.39369126599664       -0.00124375412495
C           -0.13816342776681        1.07381595625539       -0.02628364523948
C           -1.05883982452690        2.09108183590740       -0.06848622323110
N           -0.66643899318251        3.40153511727667       -0.10229130603211
H            0.27038092122382        3.60778395289173       -0.39955569016129
H           -1.38653367937226        4.06942177840195       -0.31941930134294
N           -2.39866783866529        1.94268460183658       -0.02714459486455
C           -3.11886749760873        0.84696216180889        0.03479060378042
N           -4.44642503637700        1.11887802188390        0.09676129951756
H           -5.12961539504979        0.38525271564658        0.16542850360933
H           -4.72581569152281        2.08265025105808        0.12782935730419
C            1.27160969053505        0.87040091452080       -0.03349089026896
C            1.01982000252824       -0.62581614672650       -0.02567929385161
N            1.80487459867177       -1.67801644202925       -0.04397914801163
C            3.12800675617811       -1.53706106817208       -0.06488957867009
N            3.81161526622236       -2.71095786393740       -0.20427947327842
H            3.30368834732171       -3.56508375150434       -0.05970202183431
H            4.79894784997396       -2.69326706961506       -0.02238099576047
N            3.93518801130165       -0.47676254642506        0.02629764761741
C            3.69160582988175        0.81414170823328        0.06573855083447
N            4.82685905377586        1.57695711689529        0.12181685406894
H            5.68668791216132        1.08449158154797        0.29326751168602
H            4.76810323898742        2.53462421498988        0.41854814485321
C            2.45361234537824        1.52660720349065        0.01959154129358
H            2.50103051737100        2.60928037171922        0.05519672909259
