28
 energy: -51.419676796682 gnorm: 0.000615646118 xtb: 6.6.1 (8d0f1dd)
N            5.72255663137083        2.00263610120216        0.00220683707783
C            4.81935349019483        1.29273572746183        0.00273497249073
C            3.71729582811556        0.41015786036581        0.00151292030267
C            2.47539369913876        0.97519859832783        0.00088831696533
C            1.27755786183137        0.23350394432579        0.00018942199610
C            1.08044031842764       -1.22442794648121       -0.00002378190714
C            1.90915132385984       -2.26952392074832        0.00030294393571
C            3.35498692087118       -2.12426446564549        0.00106680306766
C            4.09822084785797       -1.00530687104752        0.00159918225626
H            5.17449430810810       -1.13869951027075        0.00222775715560
H            3.89519043174290       -3.06256388563197        0.00131622979002
H            1.51480356667307       -3.27493093279207        0.00004564557820
C           -0.37716107008926       -0.96155824751900       -0.00060934716418
N           -1.42272929534885       -1.69809391729093       -0.00077176374500
C           -2.67271957900827       -1.12050770294585       -0.00102397655301
N           -3.63247238152598       -2.06463176682471       -0.00110497904862
H           -4.60908323159912       -1.82547626635706       -0.00123709285814
H           -3.33952552482179       -3.02579115623946       -0.00094362758567
C           -3.02494369738467        0.23013163655017       -0.00117563309416
C           -4.40851649180523        0.47604977218822       -0.00203792831243
N           -5.54417665908383        0.67178220741958        0.00127397697820
C           -2.18954521775859        1.43915188755202       -0.00137518010031
N           -0.89093502604979        1.55659002685940       -0.00071171270106
C           -0.09791022261726        0.47648620675249       -0.00046797806047
N           -2.86502571271614        2.60886834249487       -0.00319390860024
H           -3.86865227624775        2.64576261848775        0.00004261575673
H           -2.32382151006483        3.45492001238429       -0.00116582312712
H            2.39264619252933        2.05487339152209        0.00097123800655
