33
 energy: -58.828545030538 gnorm: 0.000504926405 xtb: 6.6.1 (8d0f1dd)
N            5.70765010430058        0.60160987186573       -0.08233707812638
C            4.65547080150505        0.13403355863784       -0.05324737602477
C            3.36796316540636       -0.43141064529876       -0.01787050901196
C            3.37983144522638       -1.86612661961471        0.02640966839402
C            2.38988344360573       -2.79144569778207        0.05399490658411
C            0.97857381504438       -2.56174874746520        0.04557188715940
C            0.43060617221232       -1.33773637050660        0.02258280567633
C            0.94718905245968        0.04544234532711        0.00455470624034
C            2.30225096503216        0.47969012415795       -0.02730811604646
N            2.57423936977181        1.79779110869333       -0.08145371967261
H            1.84724670579989        2.49289712979164       -0.05472228108681
H            3.53371654502984        2.10338947995273       -0.09100622845236
C           -0.35068133520311        0.57143186134725        0.00596770976014
C           -0.92344171466781       -0.78326819854524        0.01480799610677
C           -2.17926595339327       -1.27991397280371        0.00433441486030
C           -2.35644150079338       -2.68176197798255        0.00250763900094
N           -2.53278777796570       -3.81636397719771       -0.00364002580260
C           -3.37975190881879       -0.45390603692978       -0.01896332640561
N           -4.55461596355670       -1.14293067825928       -0.00819826737001
H           -5.42438885335388       -0.65488585790499       -0.12230009680245
H           -4.55269065369929       -2.14266516084692       -0.11190786303077
C           -3.42376295928584        0.91583132913123       -0.02110753060325
C           -2.43679982710968        1.94117107437708        0.00173310511397
N           -2.94355885732170        3.21038421095762       -0.03887847523838
H           -3.92284673956124        3.36329016483745        0.11852788677421
H           -2.32327630615856        3.99221102506016        0.08576660186512
C           -1.04182514016361        1.80834103428493        0.01621691401332
C           -0.29839021776532        2.99375616262117        0.05599147929746
N            0.30371455907146        3.97731828732742        0.10095865321431
H           -4.43380607364450        1.31479106979198       -0.04265763105216
H            0.33212262379974       -3.42862192879493        0.06135601769045
H            2.69175024277464       -3.82911024032536        0.08456782601500
H            4.39072283392236       -2.26108719510474        0.03631275216047
