32
 energy: -53.497525154091 gnorm: 0.000426658603 xtb: 6.6.1 (8d0f1dd)
N           -5.61975776835932       -0.01559137665980        0.13978972735875
C           -4.47039031257998        0.00167412553359        0.05510531650889
C           -3.06324230520574        0.04403758588538       -0.00750542746660
C           -2.53874294333007        1.34007032964970       -0.06916157325596
N           -3.41558436656587        2.38443845875220       -0.15967219221094
H           -4.40222561964264        2.22263193364004       -0.05151250955542
H           -3.07453400068584        3.32004938381646       -0.03363096751015
C           -1.16080120591196        1.72164532000406       -0.07004249464787
C           -0.12752006529679        0.86475034634728       -0.03860556067552
C           -0.05407279612929       -0.62252123599493       -0.01541741497569
C           -1.08786549202738       -1.55053512174620        0.02309846633401
C           -2.43613775571038       -1.25580680965166        0.02386821674739
N           -3.30770422227518       -2.33288869477608       -0.00908179398622
H           -2.93560639957853       -3.22032261610700        0.28537452064023
H           -4.26838012053663       -2.16752410978117        0.24442937420938
H           -0.83063371808139       -2.60370196960066        0.06361382787257
C            1.33812034495659       -0.56689479575966       -0.01167403066800
C            1.31937505194647        0.91498087522140       -0.02381235686349
C            2.30759058037872        1.83381114422159       -0.02433429344894
N            3.63507854948810        1.60204918197088        0.03696062077426
C            4.22183111575444        0.42424444617409        0.04322299099766
N            5.58163392154522        0.53977063319670        0.09089083598904
H            6.16169589002648       -0.25179127062710        0.30111038422027
H            5.94414943160995        1.46359050322709        0.25122699532040
C            3.75364185158198       -0.92432651968055       -0.04475688510783
C            2.46308276842013       -1.41531242952587       -0.06063621653387
N            2.25469820849282       -2.76746794373823       -0.07608759892877
H            1.33741064003086       -3.08824701191505       -0.33219021090034
H            3.02581789616621       -3.36408866221280       -0.32532766371392
H            4.54273619360836       -1.66742968729134       -0.08363122745621
H            2.06667196237467        2.89247409805907       -0.05243451553196
H           -0.96202217106369        2.78661940676807       -0.09694073333494
