31
 energy: -54.582097656515 gnorm: 0.000649587319 xtb: 6.6.1 (8d0f1dd)
N            5.73950547097882        1.59386173491259        0.02959681364968
C            4.81357014110156        0.90736964879773        0.01393025368802
C            3.66267132444910        0.10410691678119       -0.00081284707989
C            2.44049155555197        0.78924845522917        0.00642483240166
N            2.43349879485775        2.14114187218720        0.01301548257781
H            1.56412080483985        2.63843424518593        0.05991620295335
H            3.30117855456508        2.64994619247319        0.04645008010028
C            1.19611250774894        0.11730136895481       -0.00018489731447
C            0.90983006001286       -1.33259439117443       -0.00042278229380
C            1.67577417238368       -2.43459890152828       -0.01169813168288
C            3.10804047039563       -2.39577094584670       -0.02446548871433
C            3.92022742950052       -1.30970858352357       -0.01965258712722
H            4.98447003905994       -1.52376799871752       -0.02929066160642
H            3.59512638179082       -3.36154419102391       -0.03874970439532
H            1.20146287026816       -3.40605505071588       -0.01177755921000
C           -0.51120445885652       -1.00457419005281        0.01091343197623
N           -1.58291821437786       -1.69280017386214        0.02163296569158
C           -2.82625137821631       -1.12275018524589        0.02753138820560
N           -3.78534759670559       -2.07778218516025        0.03953522361508
H           -4.76346225580941       -1.84920092891568        0.04325699218965
H           -3.48263578224622       -3.03520296228468        0.03885383259879
C           -3.19452150655635        0.22755417709305        0.01671420911862
C           -4.58795607241613        0.43381416817204       -0.00203504292013
N           -5.72917898188600        0.58583539060790       -0.03325057352144
C           -2.40417357252590        1.43865748074734        0.01288719519158
N           -3.12120655155375        2.60909711486567        0.07825714743558
H           -2.64264767657718        3.46818271388064       -0.12883617927210
H           -4.10942229676280        2.58782481186066       -0.10904440903401
C           -1.02536752439425        1.53590616796729        0.00243548001027
C           -0.16311440388742        0.44281527611039        0.00675541019700
H           -0.61404929953319        2.53910656822474       -0.00564691872826
