29
 energy: -50.349111869416 gnorm: 0.000916492818 xtb: 6.6.1 (8d0f1dd)
N           -6.06083348246495       -0.10303985342351        0.03363899416875
C           -4.91415301336325       -0.04694342412073        0.02819004061253
C           -3.49911099896615        0.01981624929656        0.01943861364363
C           -2.87894161044273       -1.24924157632870       -0.00297193642236
N           -1.59997843987044       -1.58709795782356       -0.01272753385128
C           -0.65347956673184       -0.69192816550637       -0.01029088214742
C           -0.60958470378661        0.84184162298365        0.00112079796740
C           -1.64420891955935        1.72832669287449        0.02828644196114
C           -2.98355944974981        1.32006751725997        0.03572506479921
H           -3.72691319132058        2.10899451792492        0.05665440084729
H           -1.45486802578939        2.79656070841617        0.04830252938425
C            0.79985238002245        0.75473506566090       -0.00632248594886
C            0.74519420453576       -0.71095318545021       -0.01343482821935
C            1.75989669328229       -1.67779665773815       -0.02579855591181
N            1.37477455165708       -2.97130276770375       -0.04319357740603
H            2.04336453397410       -3.71978383712784       -0.06314315630522
H            0.38903766998793       -3.17141051080534       -0.05048527615227
C            3.10840972435221       -1.32578393495569       -0.01316574946447
C            3.68584506836442       -0.04269330627557        0.00937392621193
N            5.04688999128733       -0.01156347525954        0.02128579046576
H            5.48700254726972        0.88627449765653        0.11303519929432
H            5.58939521210285       -0.84507620163050        0.14977851318843
N            3.19019496024681        1.19575009235838       -0.00959218499213
C            1.92205152616496        1.58965848090010       -0.02466421614644
N            1.75469315788923        2.93328940280755       -0.03108051447291
H            0.83901406955559        3.32658160528362       -0.14597006993994
H            2.56868586579890        3.51426084929941       -0.12166717663448
H            3.81585742139259       -2.14642513599793       -0.01492848678856
H           -3.54963199813959       -2.10291260777556       -0.01111316204199
