27
 energy: -46.097452846211 gnorm: 0.000889718232 xtb: 6.6.1 (8d0f1dd)
N           -4.75954263481419       -0.12732878188109        0.04967567997718
C           -3.41327647440785        0.06072341295856        0.02241526594549
N           -2.78005612388550       -1.12413055489766        0.00490071022165
C           -1.47147525663625       -1.33110433905896        0.00175360765883
N           -1.07572938486061       -2.61779551584489       -0.00972340199932
H           -0.09129025151236       -2.81977351288960       -0.03344285075924
H           -1.76175959110759       -3.35082457348323       -0.03002792029239
C           -0.46579867158139       -0.34872344208311        0.00697240847158
C           -0.56975545140799        1.13089904959176        0.01168471290167
C            0.84553311450354        1.23628698220638       -0.00045117774877
N            1.73862932184350        2.16850388329880       -0.00272130129537
C            3.04290726667369        1.83367614325008       -0.01382645626365
C            3.67255150694567        0.60747052927595       -0.01759126854519
C            3.17143098587582       -0.72416037928876       -0.01037380404120
N            4.10585799376655       -1.73080110137302       -0.07452559032689
H            3.76259705071613       -2.65671650609867        0.11780891392810
H            5.04913370811367       -1.52990980132503        0.20833883785282
N            1.91424899362415       -1.16012149429079        0.00158765300693
C            0.92229105916673       -0.29792986407466       -0.00352543404928
H            4.75702391043574        0.65688628056962       -0.02880688078402
H            3.68770952897037        2.70653580614933       -0.01786093326214
C           -1.68917473402296        1.91689900682050        0.02352412136455
C           -2.98447746745953        1.40193095219284        0.03013758554330
H           -3.78943514177850        2.12617113517111        0.04205136093073
H           -1.57165554733245        2.99231793231185        0.02636873462256
H           -5.10012233247909       -1.06968774927743       -0.01955446133418
H           -5.39864678544933        0.64223231767012       -0.02643008982377
