28
 energy: -50.628555110409 gnorm: 0.000887225500 xtb: 6.6.1 (8d0f1dd)
N            4.68071366801248        2.19273683413118        0.01569710855339
C            3.82632311436372        1.42037355454437        0.01208697125463
C            2.75925969311048        0.50805069985706        0.00657159188366
C            3.11353849007420       -0.84371476066427        0.01696922639270
N            2.47169699090026       -1.99121812598011       -0.00166256414858
C            1.14366277278640       -2.19147698218348       -0.01431779365987
N            0.79412908988693       -3.49385293895793       -0.04724571692236
H            1.52696062337917       -4.18043022146552       -0.08493574906655
H           -0.16910459145251       -3.77118098784805       -0.08380430625096
C            0.16444311049194       -1.20000020830006        0.01213789012180
C            0.32347266409109        0.27603054424068        0.00981503133406
C           -1.07866604017191        0.43442776554438        0.01062471045108
N           -1.90476607640287        1.43089317249174        0.00497568868076
C           -3.24004708510155        1.22116224942893        0.00753386280143
N           -3.96382757009031        2.37104169833922        0.02739406530289
H           -4.95910287233387        2.30584142563611       -0.08277564966079
H           -3.49334140760520        3.24608455782930       -0.11099396319925
N           -3.98282913612679        0.12344205710896        0.01845776573834
C           -3.65207002439519       -1.15166953275326        0.03400675846645
C           -2.40686946803734       -1.79272949644802        0.03285129932383
C           -1.23660188896619       -1.07962848758047        0.01641292033845
H           -2.40215417532735       -2.87677363874445        0.04524432913698
H           -4.52806455424088       -1.79658295206795        0.04493418005538
C            1.43828978648514        1.08457429566703        0.00081641204252
N            1.29666620089654        2.42236710504499       -0.01096477217557
H            0.36702284902972        2.80567166770151        0.00173603421284
H            2.10090876943999        3.02652112298816       -0.00660116605361
H            4.19164035220367       -1.00605860175990        0.03818526684629
