28
 energy: -45.823593114367 gnorm: 0.000553909309 xtb: 6.6.1 (8d0f1dd)
N           -4.77452714641125       -0.16525248838028       -0.07008006833628
C           -3.42546709325751        0.04558365034777       -0.02760523796755
N           -2.77437963972716       -1.13100202175547       -0.00535533212348
C           -1.46410224015764       -1.31796390773883       -0.01257297131316
N           -1.04617112592782       -2.60034716507042       -0.01104649833223
H           -0.05873223686184       -2.78032511396562        0.04162114304199
H           -1.71850789312010       -3.34376049111583        0.04540502162383
C           -0.47444139851113       -0.32134072188616       -0.02073626844582
C           -0.59687109667190        1.15302003857438       -0.02246340229081
C           -1.72244316287938        1.92139430098928       -0.03440419147034
C           -3.01583822852695        1.38698214886313       -0.04024745467949
H           -3.82832014044837        2.10307275896113       -0.05466764878313
H           -1.62960628740875        3.00042162852065       -0.03667120208398
C            0.82728987916860        1.27452342313794       -0.00403474750155
C            0.91533301194892       -0.24020594044891       -0.00382912820197
N            1.90583320312417       -1.10412386250002       -0.00368988877874
C            3.17278793280546       -0.72132645093751        0.02009935130489
N            4.06598240752969       -1.77332792338712        0.09365485369111
H            5.00319134426945       -1.61952044210213       -0.23811710540464
H            3.67075732457343       -2.67614340053770       -0.11318647917431
C            3.74596858543391        0.58325110038436        0.03811412635394
C            3.18350395267750        1.83456776194795        0.03313387629828
C            1.81467766944869        2.19818148491159        0.01158280884034
H            1.57627706932579        3.25506166753347        0.00966986986324
H            3.88325503560428        2.66201298298605        0.04765658840835
H            4.83106951533431        0.56435935716751        0.06169091179192
H           -5.41578147773930        0.58835570464595        0.09905965502217
H           -5.08834162429517       -1.11047745004514        0.06355172494744
