26
 energy: -43.172179905920 gnorm: 0.000806507042 xtb: 6.6.1 (8d0f1dd)
N            5.27369420970739        1.40700742458670       -0.02961985892116
C            4.26820597948770        0.84899746105892       -0.01892425301314
C            3.03811924263568        0.16284760025145       -0.00761326628226
C            1.89926327969097        0.93802874974935       -0.00223380049132
C            0.60433820843025        0.42691964108404        0.00710876423481
C            0.14936320933728       -0.98746227052750        0.01056826034450
C            0.79486378244859       -2.15782704098318        0.01128760973662
C            2.23587759152218       -2.26643391287078        0.00603597340459
C            3.16109169195688       -1.28311854127879       -0.00229772300688
H            4.19714372792222       -1.60659001061947       -0.00562314477564
H            2.61130212752611       -3.28171048318860        0.00866708488046
H            0.23124460690721       -3.08071030484067        0.01555096548204
C           -1.23071635429523       -0.49131337674662        0.01527848678050
N           -2.37402230563161       -1.05271997376840        0.01314890126761
C           -3.53897714240585       -0.32406257977932        0.01376910771350
N           -4.62632797859543       -1.14689535991327        0.06219161726308
H           -4.45476918147812       -2.12712474595857       -0.07840640479802
H           -5.54364301933062       -0.78717297783696       -0.13055978877958
C           -3.72502125794656        1.04704360411433        0.00871290374443
C           -2.80833900497688        2.12371171338358        0.00870683365553
C           -1.43696081807426        2.09257092319574        0.01056552020242
C           -0.71246897768353        0.89675336958767        0.01312791083043
H           -0.89300844445842        3.02799444163539        0.00793578769296
H           -3.27123573313773        3.10229165573890        0.00453295697643
H           -4.76700683478434        1.34715534621167        0.00752741925430
H            2.02293749982612        2.01510848001444       -0.00554271829622
