31
 energy: -53.785028246068 gnorm: 0.000958203593 xtb: 6.6.1 (8d0f1dd)
N           -1.45862842374260       -3.71602429391929       -0.04777201348692
C           -1.52824596594527       -2.56604001369914       -0.01172074883677
C           -1.57205995872312       -1.16309751737995        0.01119401538292
C           -0.39169863117048       -0.46133888563999        0.02321909814829
C           -0.17433700890678        1.05211948391706        0.01011167238724
N           -0.96530427987097        2.09398465957975        0.01198362385915
C           -2.28873681772226        1.97908923378950        0.00753130966531
N           -2.93551980525932        3.19601717991948       -0.05812197468214
H           -3.88377804941555        3.24978943399760        0.27225630048481
H           -2.35371366278841        3.99324813332826        0.14020665038365
C           -3.11522445187127        0.83469131683573       -0.00267132601402
C           -2.85858349121851       -0.52588207751023        0.00144414225665
N           -3.94581700895080       -1.37021605563685        0.06061294914285
H           -4.84832852693905       -0.99252274269372       -0.17079970997432
H           -3.80368742086152       -2.34268256870264       -0.15720225778645
H           -4.17419397155668        1.07700948515432       -0.01549321142613
C            1.19951612111534        0.84716739964279        0.00684233263229
C            1.00919510345514       -0.63280997186329        0.02410237557435
C            1.97804922182308       -1.61939860469723        0.03972949345487
N            1.66196685273833       -2.93174714791884        0.08043625058767
H            2.39183222560661       -3.62160608133327        0.06482007020446
H            0.70505304322452       -3.24246136528087        0.06471964268975
C            3.36644782541375       -1.27971846048678        0.02216549069780
C            3.99282147979007       -0.05703480144847       -0.01316655328648
N            3.61246623415578        1.22145060340750       -0.03871088627790
C            2.35297400053743        1.64550726840875       -0.02614725447427
N            2.17718854725563        2.98156380185883       -0.04214447207082
H            1.24163865110604        3.34768853337500       -0.07487718079434
H            2.98124957459870        3.58005413054596       -0.10566490004300
H            5.08073158245476       -0.11774743837516       -0.02524703109151
H            4.03172747276746       -2.13530043077464        0.03551122239301
