26
 energy: -47.163825187847 gnorm: 0.000568191397 xtb: 6.6.1 (8d0f1dd)
N           -5.30384343887749       -1.66588694670983        0.46405116783324
C           -4.34223080009184       -1.06087818535631        0.28416117326894
C           -3.17441285730712       -0.30556408127099        0.08819786032589
C           -1.97064987264594       -0.96560150614906        0.01895175564234
C           -0.74595312157163       -0.30629323385445       -0.12166515261755
C           -0.47626621269760        1.15546197401981       -0.06943036233023
C           -1.29696999269093        2.20608395537869        0.04195510750318
N           -2.65480842587956        2.14399596305755       -0.19202050017441
C           -3.40363323285376        1.12050962440483       -0.19850585722146
H           -4.43099949154732        1.32998239419083       -0.49579535652532
H           -0.93131337827445        3.21161533693524        0.19950495705373
C            0.95374189819876        0.84405482703370       -0.04635447656720
N            2.02905586786980        1.52838479799237       -0.00165833936113
C            3.24993208931110        0.88508361325027        0.03680150177602
N            4.26032247672742        1.78418001844211        0.10548221869320
H            4.01716895497175        2.75739366082495        0.14043326038979
H            5.22013092185684        1.50086447871887        0.16662804568854
C            3.53055680091768       -0.46278059144551        0.00376359926582
C            2.67895236220380       -1.61475160979830       -0.07271392584206
N            3.31040704257620       -2.81367567422751       -0.12676495936048
H            2.73640624733372       -3.63779674007248       -0.12099450761369
H            4.30097937477369       -2.89708537908477        0.00170881061891
N            1.36490921254571       -1.70184470530646       -0.11712988470239
C            0.61595345404404       -0.60430599264145       -0.09250667170521
H            4.58831993544142       -0.70261394213957        0.02936066553269
H           -1.96141157373398       -2.04584722709244        0.10264184552871
