31
 energy: -53.790650543450 gnorm: 0.000595960872 xtb: 6.6.1 (8d0f1dd)
N           -2.32588202072882       -3.21625470697479        0.05554163791897
C           -2.25275567483158       -2.06667102616598        0.01398692790763
C           -2.12632522487499       -0.66853273548659       -0.01682174671758
C           -0.86401757915862       -0.11712174473701       -0.02953747311196
C           -0.46956597009495        1.36556689660256       -0.03070018751750
N           -1.12433188897358        2.49211317317000       -0.01870117350282
C           -2.45063494463433        2.52369794189808       -0.01095347720553
C           -3.40726299846375        1.51028179452503       -0.01134249990323
C           -3.32063238043182        0.11673278175459       -0.01784892929992
N           -4.50905995861944       -0.57964369102066       -0.08551361840963
H           -5.35489661160526       -0.08482052926836        0.13891478341859
H           -4.49777236349901       -1.56308711955800        0.12852479937300
H           -4.42949786016816        1.87675475336857       -0.00812755722842
H           -2.84122194717029        3.53651360051382       -0.00050501217278
C            0.87240760658085        0.98786945898988       -0.02785143813858
C            0.50280268826708       -0.44658910782091       -0.02583837213875
C            1.35430794864481       -1.55776762057363       -0.02880704895717
N            0.85937394578381       -2.81187699126938       -0.07072042629289
H           -0.12873380434167       -2.99876829219212       -0.05548252722296
H            1.51433126237649       -3.57298661150506       -0.04385181749455
N            2.68724741242852       -1.51470074767563       -0.00431477552812
C            3.50419711354368       -0.46503169145549        0.03104004832109
N            4.80379123199726       -0.87225347855777        0.11581298296502
H            4.97949209081972       -1.85607525582571        0.01414855982321
H            5.55785986827181       -0.22454163966336       -0.01939965351751
C            3.31124613967774        0.92943953266656        0.02062367642462
C            2.11155836762768        1.63650149932182       -0.01279750086539
N            2.09693000065479        2.98953869609323       -0.05554610366320
H            1.20171951574649        3.44522903978599        0.00360337455628
H            2.93787129659775        3.52085779592387        0.07783462082452
H            4.21799872527784        1.52188111283647        0.04548054315552
