30
 energy: -56.465842199798 gnorm: 0.000804528125 xtb: 6.6.1 (8d0f1dd)
N            6.44391165955620        0.81743649413066        0.00008765957014
C            5.30026878291554        0.75272596131560        0.00028017456970
C            3.87982980225354        0.67185702532706        0.00041696472019
C            3.23409843714714        1.90076030368678        0.00034061747372
C            1.85022319490075        2.15772570367184        0.00023815888888
C            0.89279263382826        1.19853094360187        0.00020967366499
C            0.94639250185436       -0.29883140129246        0.00021985802518
C            2.07867317407163       -1.11110143299274        0.00017165666470
C            1.91666514959340       -2.51540708337298       -0.00035638399449
N            1.76128757519665       -3.65344946040921        0.00101679322672
C            3.39479221866211       -0.65273485526515        0.00027979283628
H            4.16029347513713       -1.42038205835890        0.00015559133665
C           -0.46025316977607       -0.35771024661449        0.00017017658719
C           -0.53903778032943        1.12392757319320        0.00015695561307
C           -1.56468637352966        2.01219122221541        0.00010061309577
C           -2.92622427467770        1.63648223195415        0.00010750807395
C           -3.86371232882410        2.69386890290135        0.00062545790117
N           -4.61381793381585        3.56245527906577       -0.00074267361596
C           -3.45641582703047        0.34715979438804        0.00014165245233
C           -2.86761186276214       -0.91699903327284        0.00010830246226
C           -3.79464823520115       -1.98325090501702        0.00081214135987
N           -4.53621486552172       -2.86097034084944       -0.00004853654153
C           -1.48722000952514       -1.31010844995277        0.00016517249271
N           -1.21971140111912       -2.62125860322768        0.00028530703276
H           -1.97808980535510       -3.28614112590518        0.00034735844685
H           -0.27509232924952       -2.97384909378240        0.00027170504086
H           -4.54274440989905        0.31638650461455        0.00022856106306
H           -1.34270819098564        3.07187432265117        0.00007448424802
H            1.54201355440569        3.19519917634864        0.00015715665699
H            3.88185946377949        2.76834647924712        0.00034417864799
