28
 energy: -52.220999632635 gnorm: 0.000975826878 xtb: 6.6.1 (8d0f1dd)
N           -6.30939220236644        0.05219075221714        0.00159167140774
C           -5.16735292368951        0.14518626113172       -0.00065643585821
C           -3.75000242456554        0.26503524867234        0.00021318205007
C           -3.29249718302646        1.58032721626507        0.00048796519730
C           -1.97157190655565        2.05770063120397        0.00051164827883
C           -0.87332617786099        1.25563490868667        0.00024123665134
C           -0.73692845683700       -0.23229791484296       -0.00009866979640
C           -1.71161157229212       -1.22143146603982       -0.00023182104460
C           -1.27838381460195       -2.57153777112813        0.00002662659256
N           -0.91047121045317       -3.65697224788141       -0.00173263932292
C           -3.08288135949148       -0.97684109262094       -0.00011496022798
H           -3.72577306478111       -1.84931087570920       -0.00028068051895
C            0.66470892920416       -0.11405266039553       -0.00015552658494
C            0.55353237575280        1.36701847323764        0.00014422582434
C            1.52540405498020        2.32268945602693        0.00041869396323
N            2.84196587730540        2.12677447169312        0.00018488560086
C            3.50926253857212        0.98551971243269       -0.00008974893807
N            4.84023042155462        1.17773428868434       -0.00034689683867
H            5.48942854427030        0.40829041638242       -0.00053970496118
H            5.17309090078322        2.12741545433918       -0.00035818585698
C            3.08328460826873       -0.40842478160962       -0.00007100866727
C            4.12281364260742       -1.35663981733350        0.00219029250938
N            4.99092806976527       -2.11147204227649       -0.00297356742287
C            1.78798405140030       -0.91121802791420       -0.00017978177910
H            1.66743337903164       -1.98818546192346       -0.00004909688587
H            1.25153298489357        3.37342204482795        0.00086059132628
H           -1.83284850285402        3.13104182484916        0.00070992471998
H           -4.06928395101421        2.33548661912487        0.00063638388215
