28
 energy: -50.630275888328 gnorm: 0.000839664266 xtb: 6.6.1 (8d0f1dd)
N           -1.81458016155289       -3.72628261685450        0.02841852446259
C           -1.66876291457216       -2.58629032167004        0.02115667185938
C           -1.54157397407922       -1.18451194852142        0.01444348994566
C           -0.33788354971471       -0.57745765106490        0.01317477126369
C            0.02584350601277        0.86336858389714       -0.00098521598665
N           -0.69987018674811        1.98782293133559        0.00029283390326
C           -2.00489183382002        1.94430626697534        0.01963413328177
N           -2.64016234829363        3.14526183313991        0.09233289480247
H           -3.63001890163068        3.16106241835330       -0.07380248447490
H           -2.09797430166351        3.97679803212352       -0.05782725159860
N           -2.90464014224908        0.91715919893816        0.00272770285041
C           -2.77480818493371       -0.36609092671506       -0.00084966548319
N           -3.92581263724739       -1.07227814481697       -0.03359215712237
H           -4.79497454365484       -0.56850183246046       -0.03037336015938
H           -3.92335356118678       -2.07735489354278       -0.01771439425164
C            1.37192296141469        0.54021316519705       -0.01482816788384
C            1.09177603293286       -0.90269788532168        0.00518643125589
C            1.90981716617727       -1.96475495907297        0.01450591666087
C            3.33976704331596       -1.81296081514507       -0.00335450730283
C            4.08612751374236       -0.67555307398856       -0.02216960280997
N            3.81672198222949        0.66040413655237       -0.01489031490567
C            2.64121584542011        1.21676731998242       -0.01300840317716
N            2.57573957382148        2.56312893934119       -0.00867428998230
H            1.67426267073464        3.00706584537367        0.02271773033983
H            3.42538422300322        3.09792135524437        0.02413154020139
H            5.16355719955881       -0.82346048211416       -0.04050948485927
H            3.89657824159511       -2.74060757521333       -0.00526535717294
H            1.50709517548780       -2.96829167095193        0.03174400054346
