25
 energy: -42.647324187793 gnorm: 0.000499675665 xtb: 6.6.1 (8d0f1dd)
N            4.07702926257509        1.41048404610606        0.03985428754314
C            3.04184522817829        0.54174634455020        0.00524649635932
N            1.82883205341474        1.22423516256037       -0.00558443487897
C            0.73475318682469        0.58059284448869       -0.01054832724289
C            0.34382519513982       -0.86273396843070       -0.01134976628330
C            1.20978405698849       -1.96609257423271       -0.02835119012078
C            2.57188730699874       -1.81862999296664       -0.03328144546704
N            3.35036027754755       -0.71801913284322       -0.01261228796691
H            3.17555627202818       -2.72146538517512       -0.05307922233340
H            0.80725394882755       -2.97245719257307       -0.04466793935906
C           -0.99651036948051       -0.50407666161336       -0.01313963494770
C           -0.68533944663204        0.93875695424431       -0.01365215960368
C           -1.45084668738804        2.04356525356833       -0.00383903304291
N           -2.81467613218172        2.08351623956821       -0.02234225106746
C           -3.60318847194542        1.05580075055397       -0.02168152704134
C           -3.44115581525922       -0.35472117416632        0.00837113820087
C           -2.28278448730179       -1.11143191838670        0.00756239967849
N           -2.34336065820830       -2.46234349961752        0.01466182189936
H           -1.49785560635636       -3.00056308118918        0.06005213998464
H           -3.22752701024797       -2.93522870666914        0.07404197533680
H           -4.36924415120053       -0.91414921514131        0.02164552169886
H           -4.65010264596327        1.35878246063962       -0.04430953646870
H           -0.99183490367779        3.02538836090155        0.01024815546314
H            3.88664788504176        2.39530644069921        0.03378974162093
H            5.01586803587805        1.05723309632447        0.03604745243863
