25
 energy: -47.452829334829 gnorm: 0.000293458998 xtb: 6.6.1 (8d0f1dd)
N            4.37230404694764        1.84690353717204       -0.00016798495598
C            3.45113236792788        1.15431896798739        0.00022261395204
C            2.31458125560237        0.33122836885576        0.00068881016341
C            1.07480021300536        1.00062407100076        0.00014091506493
N            1.00572604319953        2.33900341014254       -0.00109435653835
H            0.09563221101373        2.77088211991385       -0.00141697336110
H            1.83690354113178        2.90675107691218       -0.00121766073009
C           -0.14054736485157        0.29002242069332        0.00085450700836
C           -0.41365541139788       -1.15956851828722        0.00346212297806
C            0.45152808053362       -2.21925339082564        0.00556881991506
N            1.77629275970021       -2.15921473353596        0.00382561587155
C            2.56404866162405       -1.09130481896053        0.00081280579985
N            3.86477959422479       -1.44415572029027       -0.00211254428625
H            4.60458891128769       -0.76230785442190       -0.00400131000409
H            4.07535596234877       -2.42765755723770       -0.00161301045162
H            0.05935124528853       -3.23040823659225        0.00873225780233
C           -1.81769382021841       -0.89912040391996        0.00414553299031
N           -2.92974264712443       -1.54527090149442        0.00614480532260
C           -4.08659848586811       -0.83363910081239        0.00602847647697
N           -4.35585703437540        0.43877597665723        0.00448832472057
C           -3.56679360622164        1.51801086498501        0.00228623362432
N           -2.25797878014341        1.67414491459716        0.00067003670117
C           -1.49346058040113        0.59961867431229        0.00150449201911
H           -4.12419414803818        2.45035758951574        0.00168020998782
H           -4.96525287219575       -1.47379568236705        0.00763676012902
