29
 energy: -46.341759597145 gnorm: 0.000711045607 xtb: 6.6.1 (8d0f1dd)
N            5.79791244525040       -0.00111214078637       -0.00509639523912
C            4.65004740680724        0.00020086790782        0.00053121011772
C            3.23173133130483       -0.00010558592991        0.00588291753599
C            2.66712281574022        1.28141993963376        0.01119418146258
C            1.31862290621510        1.64174599702122        0.01662742539562
C            0.27779531756659        0.75773073040120        0.00668857848530
C            0.27771525166522       -0.75772842345927        0.00576745329234
C            1.31846818283475       -1.64185794840547        0.01462768642700
C            2.66703817293458       -1.28164456993595        0.00963440665548
H            3.38088585809208       -2.09697935009740        0.01196556045107
H            1.11019893795759       -2.70660536596175        0.02964896025325
C           -1.13626777102924       -0.73736835783279        0.01264218411818
C           -1.13617054638712        0.73753150724358        0.01355042923997
C           -2.17981677907526        1.65789965875557        0.00853791158659
N           -1.89358654939894        2.98733380626946        0.02487039217441
H           -2.63116419816747        3.65549914846528       -0.11164635608432
H           -0.94740578276580        3.28534709526363       -0.12513634285045
C           -3.53256407421364        1.27097137786158        0.02404110059626
C           -4.08381963454598        0.00026894602675        0.03606983069393
C           -3.53276103525541       -1.27049988748930        0.02249364162411
C           -2.18005921363349       -1.65757857490024        0.00651137278555
N           -1.89403297929745       -2.98706900676887        0.02123813499460
H           -2.63171641592620       -3.65495494411827       -0.11607909504916
H           -0.94790326055979       -3.28502761545940       -0.12914517509302
H           -4.24157209929175       -2.09016916913226        0.02537163640834
H           -5.16875026667024        0.00034512424529        0.04892556516167
H           -4.24125473229768        2.09073092535752        0.02787600832103
H            1.11052368888289        2.70650104957675        0.03297173454542
H            3.38107247066388        2.09664850934781        0.01453211978967
