32
 energy: -58.318870185597 gnorm: 0.000741545342 xtb: 6.6.1 (8d0f1dd)
N            4.94483705066133        1.79779866639811        0.00771804597267
C            4.06567194521372        1.04834450401631        0.00436751892331
C            2.99195445836602        0.14835133901069        0.00123542549158
C            1.71173278193219        0.75707556033564        0.00496988969964
N            1.65081024151581        2.10138964893687        0.01303462424142
H            2.49841223520191        2.64468490806586        0.01437834142796
H            0.76726507514882        2.58380868174589        0.01086517697495
C            0.51889791042252        0.01596302759164        0.00258801926904
C            0.31527520019854       -1.46155153899461        0.00260654147860
C           -1.08947600876283       -1.25995204139843        0.00706768621575
N           -2.13410792005669       -2.01344532229503        0.00500846623150
C           -3.38118979710128       -1.48426625892251        0.00339270770309
N           -4.34768610255301       -2.43194277343304        0.01412673924784
H           -4.07704776942259       -3.39638774985212       -0.03946036812855
H           -5.31062926853355       -2.15686422012842       -0.03769700747249
N           -3.82998129732930       -0.24610469786881       -0.00104939419027
C           -3.22020956638967        0.93155329564736        0.00916932799979
N           -4.09343502419764        1.97406141661315        0.04445863972575
H           -5.07262582269850        1.76565607351383       -0.02677065099376
H           -3.77304780258663        2.92161794325998       -0.04769910040336
C           -1.82773576058986        1.24151671948427        0.00492653101162
C           -1.46363311167449        2.59276988707411       -0.00924797918709
N           -1.16601636797546        3.70742106694667       -0.02792781727609
C           -0.85799784855179        0.24213183512734        0.00679083729400
C            1.18089986164107       -2.51215638373498        0.00007081090137
C            2.57052388407039       -2.39220912624559       -0.00482767269430
C            3.36185098155784       -1.24336453862170       -0.00575740659920
N            4.70229124076327       -1.46328984356402       -0.01447924450466
H            5.35059930694830       -0.69455069644640       -0.01258085546608
H            5.05852905598436       -2.40172170277859       -0.01650572781837
H            3.12705421445336       -3.32126658502363       -0.00876197613299
H            0.76441084564384       -3.51048177275979        0.00165614325735
