30
 energy: -53.285417329425 gnorm: 0.000549891595 xtb: 6.6.1 (8d0f1dd)
N            4.11999435269551        2.13571795943847       -0.14147501693764
C            3.12374675537051        1.19595071420257       -0.03590810285338
N            3.58028766167141       -0.03713515049103        0.00123708482869
C            2.96185078787598       -1.21915651167526        0.03081385512178
N            3.83659969273968       -2.27015711255556        0.13929669300690
H            3.47206318405747       -3.18135217912914       -0.07750178902562
H            4.79651128617357       -2.07808705664711       -0.08800225085592
N            1.68252527045710       -1.58142788801824        0.01109335960163
C            0.72971852932670       -0.67811575765835       -0.00414169722783
C            0.72757205681117        0.84456826253077       -0.01180914054234
C            1.78610277171370        1.69002123095251       -0.03464326408098
H            1.65255547214939        2.76596836348936       -0.06971860400843
C           -0.69159698213681        0.80836881003988       -0.02103813447077
C           -0.65997416689687       -0.67790764704547       -0.02217237489023
C           -1.72416663971377       -1.58847607374948       -0.00385225469150
N           -1.43165528917776       -2.90634081748385       -0.00696391105102
H           -2.17312763036848       -3.57558426368532        0.09512338211361
H           -0.46783870449590       -3.18048809173178        0.06959217204304
N           -3.01153214389222       -1.27004644468887       -0.00174901534433
C           -3.52960674593010       -0.02882007503415       -0.01724674366814
N           -4.88774704372505       -0.07598295668517       -0.00847302658254
H           -5.39881231639537        0.77844913319153       -0.13400066597008
H           -5.33374634209709       -0.96665660068289       -0.12967297879616
N           -3.07480167555243        1.21124845923078       -0.00261307212768
C           -1.79448864636143        1.63116047942855       -0.00052764412151
N           -1.66755770916533        2.99240599832297       -0.02779711052475
H           -2.50002121199889        3.51695151433477        0.18028825033834
H           -0.78121689176564        3.39086344879785        0.22624951175083
H            5.05499473009299        1.80070482916073        0.01809261170691
H            3.92180964423797        3.08701073034091        0.11441859575913
