35
 energy: -67.074843247485 gnorm: 0.000895328385 xtb: 6.6.1 (8d0f1dd)
N           -5.90198396924347       -1.56051038192903        0.06472040580587
C           -4.93820392125085       -0.93106233275782        0.05736006913029
C           -3.74971568973794       -0.17947339205349        0.03921840255530
C           -3.92924861760229        1.20023312316301        0.17134794915601
N           -3.14763699925091        2.24616712812508        0.09565285067012
C           -1.81248262102869        2.28455120424870       -0.04167414875894
N           -1.35830090235917        3.53017638878282       -0.25508376746925
H           -0.38080941800671        3.76877894370845       -0.26262937012726
H           -2.04846632025357        4.26302066726505       -0.24926252937145
C           -0.95922504880691        1.17444913819874        0.02571234477683
C           -1.29417255381864       -0.29234581083194        0.00535678520922
C           -2.52769924548149       -0.93179700721719       -0.05148814402411
N           -2.64501650038512       -2.26433630536674       -0.17564216332540
H           -1.84663467579178       -2.87646882593810       -0.16131743607530
H           -3.56543377428077       -2.67466599242243       -0.17968528639341
C            0.07894764958334       -0.60430372319543       -0.00587199948701
C            0.40799081834574        0.86968622722806        0.01153216915653
C            1.63815706642287        1.50776817309303        0.05068706624736
C            1.65381514769889        2.91211647041093        0.11105626448413
N            1.67396557182023        4.06314688966003        0.15592554223345
C            2.91018007326136        0.87497827341857        0.03159131402521
N            3.98999576336448        1.70223741809085        0.04512705057951
H            4.92308525297125        1.32974360250097        0.03764319462586
H            3.86415711689377        2.69867946977127        0.07032844978728
C            3.17860500821310       -0.51708881084731        0.00078718193684
C            4.55876405219063       -0.82346666066067       -0.02299548139593
N            5.68185849924246       -1.07226489406277       -0.04352549142021
C            2.34739595511782       -1.66156621443140        0.00423252294703
N            2.97244860179576       -2.86941377128249       -0.00601294829655
H            2.43694438224190       -3.71941896003171        0.00111050050739
H            3.97566348120520       -2.92754133749229       -0.00681838441153
C            0.92145122466585       -1.69958609762705        0.01537300219293
C            0.35321352402908       -2.98592721477648        0.05008256108741
N           -0.09879693968754       -4.04467071326103        0.08097192345391
H           -4.96572070547862        1.49260804332123        0.33864836988638
