29
 energy: -51.150648860593 gnorm: 0.000812952964 xtb: 6.6.1 (8d0f1dd)
N            3.24927240718875        3.24394144553534        0.00134850429952
C            3.08300273285499        2.10918514919984       -0.00163745138611
C            2.87993659379699        0.70773718893260        0.00028104383696
C            1.59755365926574        0.23502800796427        0.00055425656591
C            1.06031354394519       -1.15967653775453        0.00066175019336
C            1.73798356046357       -2.36110247845848        0.00130561595711
C            3.11756571368675       -2.48604216978864        0.00144976381366
C            4.10892306085431       -1.49091953564192        0.00093702428148
C            4.03563323090703       -0.11747598432218        0.00034357164709
H            4.97744331686711        0.41724306588689       -0.00015216332039
H            5.11998545404234       -1.88271528925404        0.00094862953769
H            3.49621730521158       -3.50046147309582        0.00197656608620
H            1.16450824442588       -3.28149731222107        0.00189063173247
C           -0.25338317303727       -0.64865755185641        0.00058792725684
C            0.25842383920788        0.73590399779732        0.00063532136647
C           -0.38707659710672        1.93883821476640        0.00072713175034
N           -1.69892912993840        2.13806499541307        0.00147456703028
C           -2.66521508966172        1.23024938580706        0.00164801330130
N           -3.88428530200305        1.81325453803235        0.00325470105894
H           -4.73474181377053        1.27714721299952        0.00324946965671
H           -3.91141569435627        2.81799826058111        0.00394578568978
C           -2.66845928081785       -0.20901343328364        0.00014575821943
C           -3.93527077145149       -0.80936652673234       -0.00042845840189
N           -4.96906131919244       -1.32134100577477       -0.00290843085819
C           -1.57142542607392       -1.10604245720542       -0.00021091988640
N           -1.81655867425518       -2.43418439337364       -0.00048907806284
H           -2.76133792401275       -2.77928599370219       -0.00348390116608
H           -1.05260433330633       -3.08365718992289       -0.00391790826656
H            0.19324635166558        2.85625675107224        0.00042334216672
