30
 energy: -54.867656157265 gnorm: 0.000450286485 xtb: 6.6.1 (8d0f1dd)
N            5.72277570269337        0.07306928898827        0.02465685258458
C            4.57347221373831        0.09602388113997        0.01536879768110
C            3.16196094151818        0.13870048835972        0.00523567407274
C            2.55432448205385       -1.13686799510995        0.00773836099206
C            1.20996996654810       -1.47276946430419        0.00143524759971
C            0.87200604472901       -2.83838230376320        0.00601115149129
N            0.54236602457259       -3.94118126984412        0.00855700177928
C            0.17753342351160       -0.51871097665662       -0.00742658188553
C            0.32923959442127        0.98718898980698       -0.01030951171672
N            1.30407241977247        1.81496404579481       -0.00984957458208
C            2.60748165285908        1.43603949316003       -0.00532505914022
N            3.43761740963713        2.50575058128114       -0.01108236804336
H            4.43638930408932        2.39765155163835       -0.00437270681902
H            3.01937520968149        3.41862246876759       -0.01449526634983
C           -1.10074399646275        1.10519861270071       -0.01129553725874
C           -1.20111603459458       -0.37368149143841       -0.00883703839379
C           -2.39214443822746       -1.15290036671362       -0.01295319033162
N           -2.29930909220405       -2.49771928110800       -0.02301768028012
H           -3.13189031224732       -3.05981196980216       -0.02102127897900
H           -1.40713552825832       -2.96434761428692       -0.01750003221151
C           -3.64256228965698       -0.55792271295605       -0.00798935554259
C           -4.02745625262567        0.81315222606616        0.00429981286293
N           -5.36590391558176        1.02737777735133        0.02586119765353
H           -6.03191118185768        0.27743082040711        0.03349136355001
H           -5.67987863642183        1.98170313227295        0.03302356981271
N           -3.35850800808950        1.95881762616919       -0.00486240379127
C           -2.03244809195670        2.09563769275028       -0.01495925557400
H           -1.70210728653957        3.12898511075602       -0.02365338382245
H           -4.47946514844819       -1.24785575876403       -0.00853751816480
H            3.25379419784644       -1.96545502246333        0.01595661810620
