34
 energy: -63.361845935975 gnorm: 0.000886854628 xtb: 6.6.1 (8d0f1dd)
N            2.27658387035407        4.16799736969193       -0.01509423869434
C            2.40304123035031        3.02539558717904       -0.01061312758724
C            2.60968130653924        1.62799365050574       -0.00540906406057
C            3.97086337013567        1.26149599810878       -0.00648102859839
C            4.54383284238726        0.00075945126394       -0.00216328552131
C            3.97125782806740       -1.26014639034141        0.00255560176307
C            2.61020084278680       -1.62710842726937        0.00236564890769
C            2.40396075802300       -3.02459768793824        0.00738322617104
N            2.27750621965730       -4.16743913518950        0.01249293198212
C            1.53926067986015       -0.75499984505063       -0.00138160288857
C            1.53904475776355        0.75551974103785       -0.00116559058810
C            0.12454918498247        0.73757976696498        0.00005354464572
C            0.12474875223407       -0.73749191200238       -0.00189801282857
C           -0.91974199282719       -1.66758873224912       -0.00467485767173
N           -0.65124636689786       -2.98536355840764       -0.01265813346810
H            0.29271703120182       -3.33289497648280       -0.01011410127336
H           -1.40578735213588       -3.65170315501154       -0.01129341719257
C           -2.28888803961982       -1.28384890820801       -0.00122368544792
C           -3.19452342678047       -2.36203223845516        0.00105149817894
N           -3.92705561903340       -3.25147079923933        0.00161699112884
C           -2.89329627695410       -0.00033573543523        0.00002975781251
N           -4.24699485449615       -0.00052701832743        0.00063942109022
H           -4.75682626096403       -0.86756626813503       -0.00010566730919
H           -4.75705714806645        0.86637215120043        0.00166506322392
C           -2.28921122472580        1.28333724395199        0.00082338112078
C           -3.19493582501752        2.36141035932048        0.00013183320624
N           -3.92833133506719        3.25007737965358       -0.00252842932721
C           -0.92015952835130        1.66740515363506        0.00338034409578
N           -0.65197074947092        2.98524234624402        0.01122913327447
H           -1.40667500155632        3.65140121703978        0.01033161323055
H            0.29192252695592        3.33299147440559        0.00813482488253
H            4.66395672523782       -2.09281023186931        0.00628188551258
H            5.62725192050457        0.00092191818899       -0.00233769416040
H            4.66328332652270        2.09437561951907       -0.01058585841000
