36
 energy: -66.792435895692 gnorm: 0.000717689594 xtb: 6.6.1 (8d0f1dd)
N            5.90576612164814        1.60908805490516        0.22529365195811
C            4.95548221079929        0.96207718138785        0.15581892226656
C            3.78935944316585        0.18143748729687        0.07126264328987
C            4.02151449891443       -1.20017064732789       -0.02575283878543
C            3.19139157649722       -2.28483273361987       -0.11292269796798
C            1.77367377518023       -2.35415616949443       -0.11905137521949
N            1.24753231713411       -3.58932136915087       -0.23449934869435
H            1.86316059210750       -4.38374966630982       -0.24827141507667
H            0.25782622801240       -3.76007391222090       -0.18991281670107
C            0.96753098081898       -1.21926204274408       -0.03911176818381
C            1.31885153763480        0.24211591000346        0.00696811524423
C            2.55536311321770        0.89429624958766        0.08520073738070
N            2.63254724151447        2.23166331413533        0.20230100808387
H            3.54075754466226        2.66706853651066        0.23000690891599
H            1.81968551446598        2.82208007695216        0.16590629834495
C           -0.04269569866640        0.57870653848714       -0.00500990901170
C           -0.40100042476167       -0.89402032087363       -0.01525475650758
C           -1.63944271872783       -1.50497306441161        0.05691019969178
C           -1.70801259635652       -2.90851105704404        0.10201164033992
N           -1.79439873987286       -4.05739402838102        0.13683242492641
C           -2.90226776468858       -0.84317381109640        0.10920743159829
N           -3.99133184480888       -1.64571623553270        0.27430799345828
H           -3.88933688709392       -2.64525944649476        0.26820755028978
H           -4.91743095965328       -1.25638894720171        0.24503126920048
C           -3.14794855784264        0.54465225019286        0.01020666906650
C           -4.52236167225411        0.87568128808027        0.02211989623889
N           -5.64197603055289        1.14147285245033        0.03285653722161
C           -2.29542066179289        1.67200521996018       -0.09934736036814
N           -2.90898354300214        2.87960309912705       -0.25147016885770
H           -2.36651761384795        3.72521919118916       -0.25525614079245
H           -3.91018002159382        2.95046971764882       -0.20451033524661
C           -0.87362716868162        1.68829808023671       -0.06822455969572
C           -0.30203191292519        2.97143936727156       -0.12748824608478
N            0.13055198079198        4.03891575733850       -0.17039488338876
H            3.68402452373681       -3.24673128988253       -0.18327947634475
H            5.07920472032179       -1.44503806977689       -0.03068358938875
