25
 energy: -42.644402388114 gnorm: 0.000931859744 xtb: 6.6.1 (8d0f1dd)
N           -4.85395065941099       -0.29403349177058        0.01534181531900
C           -3.50550103309968       -0.15999267851387       -0.01345510863084
N           -3.12028795039227        1.08516263828400       -0.03029671505201
C           -1.84381904599611        1.54916055225406       -0.04609638403905
C           -0.71790605015519        0.81006336182789       -0.01075544482892
C           -0.49555213549818       -0.65990686470479        0.00537613019674
C           -1.46527714420044       -1.67817568136426       -0.01613217036087
C           -2.80015290644714       -1.44226864328382       -0.03434583607704
H           -3.46129931910226       -2.29979583556747       -0.05296911201671
H           -1.11409181634780       -2.70237157210275       -0.02187259915195
C            0.87850846522899       -0.50315687886474        0.01382937693772
N            1.94868374075789       -1.29616467014198        0.01991658322369
C            3.15543781803001       -0.78740561246629        0.02932647223658
N            4.16566097370858       -1.70541791122044        0.09904986449845
H            3.89928960923259       -2.66677105837354       -0.02802820474634
H            5.10274376583759       -1.44026104515862       -0.14570926244657
C            3.57764371041420        0.59975565753089        0.02360396178607
C            2.86880997654963        1.75986529078896        0.00900064719630
N            1.52178921727444        1.99469645358884       -0.00292442631402
C            0.71711110979666        1.00019717411486       -0.00013061632714
H            3.43316873993776        2.68650191626986        0.00550517138877
H            4.65639156150857        0.71660459137458        0.03568079757772
H           -1.78700916031403        2.63136571894195       -0.07608414388101
H           -5.30151285002557       -1.19033501008217        0.07855794044001
H           -5.40501043348721        0.54559506303942        0.05776579217145
