28
 energy: -52.216493773309 gnorm: 0.000656529814 xtb: 6.6.1 (8d0f1dd)
N            5.39613473528262        1.57019010007774        0.00060878798302
C            4.46865128027084        0.89482225077187        0.00114887907408
C            3.31958233861216        0.06930467952849        0.00075522796005
C            2.05655765085160        0.79461810556592        0.00046226964104
C            0.88234981014109        0.16401930521139        0.00077592763025
C            0.48271539779953       -1.25732435809340        0.00149224994895
C            1.28420163780850       -2.41530694173997        0.00217949058338
C            2.64443890945666       -2.39731534045120        0.00234829100636
C            3.53979383939271       -1.27860103251661        0.00166352283193
H            4.58657309692410       -1.56494714368758        0.00205025612367
H            3.14377346796748       -3.35713788120872        0.00304143733170
H            0.77083010371367       -3.36828514936133        0.00246397035764
C           -0.86875048345206       -0.91743211722346        0.00119923423431
C           -0.55644617930884        0.50640012960398        0.00048637490309
C           -1.32279277087419        1.61707838312771       -0.00032672771723
C           -0.73615236807476        2.89665505997963       -0.00194751131641
N           -0.29350615543145        3.95708016746360        0.00064583339638
C           -2.80653078237340        1.53120247193566       -0.00036301108683
N           -3.44095375289416        2.71956142933983       -0.00137377785113
H           -2.93668367560880        3.58979636163861       -0.00201358483286
H           -4.44663047142014        2.71708740178196       -0.00149513601253
N           -3.57624300693955        0.49154853527194        0.00027100713995
C           -3.32815458986452       -0.83054358114611        0.00096836818726
C           -2.14985549140303       -1.53864564131353        0.00131985381274
C           -2.19533484354902       -2.94814566603440        0.00032582188798
N           -2.20868129418350       -4.09596074956799        0.00372258776204
H           -4.24982591828915       -1.40452931620675        0.00131133807777
H            2.11083148414641        1.87504159655308       -0.00003214125698
