28
 energy: -50.637387952494 gnorm: 0.000715853465 xtb: 6.6.1 (8d0f1dd)
N           -2.42809943669532       -3.34601075846042       -0.01997852852200
C           -2.41134108167833       -2.19587667712258        0.00520876584016
C           -2.34911381055570       -0.78998732392230        0.02844919644266
C           -1.11223509465114       -0.17635354709159        0.02707315901494
C           -0.80160051780520        1.30741838631309        0.03565297361392
C            0.57251290043054        0.99104776295370        0.01474186760376
C            0.26565573161159       -0.45113057714074        0.01506344888824
C            1.16805085995654       -1.52709964478277       -0.05898976931443
N            0.73226981819945       -2.79268629349925       -0.17550458960674
H           -0.24725247461088       -3.02637132092418       -0.16924899214376
H            1.42147541886261       -3.52304461847858       -0.21362605668519
N            2.49217817458126       -1.40147543765564       -0.01343749763105
C            3.22351477068187       -0.29259473671790        0.06345999108699
N            4.53568227035373       -0.56114091999412        0.24405318386292
H            4.83674282734435       -1.51695457568162        0.29142214559041
H            5.19194678894339        0.19708208117417        0.27258858686847
N            2.99237005270078        1.01701107843154       -0.04536797900567
C            1.81433202229548        1.62900785048437       -0.08088844851665
N            1.87514671549701        2.97550938338650       -0.18528592953295
H            2.77390333971073        3.39927854807712       -0.33284760869106
H            1.03843516987777        3.51201551275341       -0.31965647876492
C           -1.65438099218770        2.37275214583227        0.08912909315925
C           -3.05240085769843        2.24871238946196        0.11910653052743
N           -3.84742825873637        1.19856977698644        0.08617652499297
C           -3.57753717338363       -0.08344304213860        0.03923255975850
H           -4.47183156220690       -0.70160385616229        0.01197184618395
H           -3.61175144217460        3.17972589970286        0.17211251912988
H           -1.25288554306310        3.37974093141486        0.11760066344992
