30
 energy: -50.067827455670 gnorm: 0.000951775605 xtb: 6.6.1 (8d0f1dd)
N           -4.28110991315372       -2.30597262556097        0.06003680175271
C           -3.49838753878032       -1.45718038636952        0.02692188746012
C           -2.52511405877800       -0.45201673683126       -0.00146656003293
C           -1.18941186006861       -0.91352363565669        0.00134072432451
C           -0.08967853990383       -0.05375125135023       -0.00683178263845
C            0.02373764983097        1.41798969427296       -0.00647943248535
C           -0.94118547680473        2.37644454840164       -0.01687759411566
C           -2.31622944254341        2.11227195808522       -0.02886111170607
C           -3.00848716974031        0.90261944744227       -0.02628020581645
N           -4.36713197488316        1.00745271856035       -0.06889645335268
H           -4.80229903514209        1.90943461443659       -0.00220405354771
H           -4.94332254155831        0.18739698695361        0.01144688117633
H           -2.95605840327637        2.98705114978297       -0.04370876640227
H           -0.64335958517411        3.41738408334744       -0.01688495865253
C            1.45271014458073        1.31059492031907        0.00575163595413
C            1.29978157965427       -0.19401085488440        0.00422939293672
N            2.13570390327059       -1.20693219915510       -0.00150072610413
C            3.44959217953797       -1.03558556911257        0.01400273189882
N            4.15830306216199       -2.21319537756445        0.07538241439410
H            3.63097750568314       -3.04942562699643       -0.11159350130660
H            5.12143229821188       -2.21404617540547       -0.21191970587139
C            4.22437698060042        0.16209440289287        0.02941874604355
C            3.86830837275151        1.48601267388542        0.02879798420446
C            2.57444640632563        2.06457332447979        0.01559629400341
H            2.50834484359224        3.14550893027682        0.01644945747412
H            4.69087652205008        2.19121132681502        0.03991796441391
H            5.29248320997007       -0.02937403314461        0.04524286539858
N           -0.92732981427209       -2.23600312404861        0.01138013609838
H            0.03694032204728       -2.52151945683272        0.03873719761702
H           -1.66701405028970       -2.91625283893909        0.04519726728134
