33
 energy: -62.838024761211 gnorm: 0.000879794010 xtb: 6.6.1 (8d0f1dd)
N           -5.75725855249416       -2.01009138059906        0.00719855231646
C           -4.83743491776059       -1.31767119874140        0.00663269216027
C           -3.69011483266004       -0.50864502020223        0.00449267893971
C           -3.91142547527193        0.87612437234081        0.01129432361938
N           -3.16405661380929        1.95052198162188        0.01006973423286
C           -1.81804417920895        2.04836510721810        0.00298639654524
N           -1.39567199274165        3.32307068338448        0.00099340198062
H           -2.10402932419773        4.03759119287326        0.00485275627640
H           -0.42175602679589        3.57791073245371       -0.00228251105276
C           -0.92901149060751        0.97196192795414       -0.00121019627323
C           -1.24280454092376       -0.49166799874404       -0.00315567594707
C            0.12245394349969       -0.79659835565426       -0.00815680393702
N            0.82445936392811       -1.89003429306020       -0.00914111173245
C            2.15852858941216       -1.90268789940186       -0.00997960734119
N            2.66415786850195       -3.16295679151507       -0.03557662233166
H            3.65025532706912       -3.33872761695297        0.03546673557171
H            2.01413478681673       -3.92560853732658        0.02078753328974
C            3.08916550159252       -0.81997435000079       -0.00262676026337
C            4.43568210447061       -1.23972007063901        0.01916472214736
N            5.53226236130629       -1.58877558430622        0.04909408787547
C            2.91948334236616        0.58526748038090       -0.00984218814926
N            4.04732238586560        1.34496721361377       -0.02266145656250
H            4.95515065860185        0.91484113212185       -0.00178874757831
H            3.98200746329024        2.34731079046273       -0.00041021359232
C            1.68573154385731        1.29984554980575       -0.00886881480878
C            1.74174562208054        2.70390847566122       -0.00605938473050
N            1.75049076590409        3.85582166410732       -0.00146547011206
C            0.44544948458497        0.69174438564227       -0.00682619149369
C           -2.43331800518386       -1.19625117523612       -0.00278944114894
N           -2.40202100136908       -2.54004012994663       -0.00796517391836
H           -1.50759739916505       -2.99998555755798       -0.01687224075218
H           -3.25498455589740       -3.07391016398730       -0.01117737776239
H           -4.96942399506118        1.14045639822950        0.01874271603275
