32
 energy: -59.119144058589 gnorm: 0.000162581431 xtb: 6.6.1 (8d0f1dd)
N            4.64821614417331        3.45130389384554        0.00165270067464
C            3.89269875695146        2.58528570799671        0.00111804178043
C            2.94121341116679        1.54581772123030        0.00059768787348
C            1.56222817113950        1.97268315212860        0.00040392331987
C            0.53551020127343        1.11754339913569       -0.00002165635499
C            0.39595492609257       -0.35487610785844       -0.00047938501958
C            1.41023380108225       -1.34549044407245       -0.00083156701962
N            1.07043729799001       -2.64413651462900       -0.00153414981193
H            0.10807117382738       -2.94169878235925       -0.00133261976501
H            1.79346175237111       -3.34606781047679       -0.00154121270421
C            2.78061877648032       -1.00629500398851       -0.00053655487895
C            3.67521324216497       -2.09387165412486       -0.00081679654153
N            4.39121694778791       -2.99512499715324       -0.00137319532640
C            3.42143857243438        0.26117263175101        0.00015528398179
H            4.50513706995919        0.18186960323156        0.00032686210723
C           -0.99855526369074       -0.26119782976851       -0.00059423126493
C           -0.92626810649427        1.21471419982329       -0.00058444778190
C           -1.85237089865654        2.17941005569284       -0.00221711762310
C           -3.27386077089173        1.89293980917516       -0.00510623502770
N           -4.08508729089387        2.97268468962686       -0.01063651729146
H           -5.07925839898077        2.82704596283766       -0.01339716720269
H           -3.71834091832561        3.90653139898733       -0.01345432830488
N           -3.89621023177661        0.74997754967146       -0.00316548151647
C           -3.46892658744039       -0.52469369875532        0.00126929796001
N           -4.51307404344832       -1.39047345340008        0.00816179594609
H           -4.36960192548384       -2.38461483739817        0.00307975308837
H           -5.44177917176787       -1.01057011571548        0.00111586455775
C           -2.16404427556733       -1.05836530075101        0.00035675448228
C           -2.05125076258555       -2.45226679093535        0.00080141745493
N           -1.96378538650527       -3.60302672966548        0.00034343800643
H           -1.55632948844412        3.21983793707387       -0.00246829960443
H            1.38224672925825        3.03963169784406        0.00070324080648
