31
 energy: -53.787412625222 gnorm: 0.000742654584 xtb: 6.6.1 (8d0f1dd)
N            4.74786977202915        2.53397755597144       -0.15224959682304
C            3.89881216722860        1.75311174456167       -0.10783875103011
C            2.88243683856647        0.79184380603085       -0.05602100684937
C            1.57310224215454        1.29348544978238       -0.04422775442919
C            0.44439758659565        0.53055186196014       -0.01071635575955
C            0.23854001195297       -0.94490460486537        0.01761899946370
C            1.16666557274243       -1.97070724284880        0.05519260240039
N            0.72950690007554       -3.26305790500467        0.06806180134657
H           -0.24046909990097       -3.42927232506547        0.26816430709549
H            1.37891200654163       -3.99782099362398        0.28969428197769
C            2.55997187317803       -1.75471066496301        0.03741990960634
C            3.30889804042687       -0.58491212835120       -0.01893459599313
N            4.65730297486442       -0.75021196594067       -0.02473506085106
H            5.26221712608311        0.05131756137090       -0.08275235546487
H            5.06071290156703       -1.66938564179389       -0.02618392167019
H            3.15282160764275       -2.66362110673738        0.06618263036090
C           -1.16045726626875       -0.77766692761415        0.01662319304714
C           -0.95768744812059        0.72746251450481        0.00373524443853
N           -1.76438858002659        1.73836603183328        0.01930787867050
C           -3.10079669440924        1.56267869877233        0.03605973964740
N           -3.78744279445498        2.73757177677399        0.05692511997209
H           -4.77577921287133        2.71038644768221        0.22836106291503
H           -3.26646495617480        3.57603706939610        0.23971317793720
N           -3.87045144559370        0.48937420232268       -0.01724693182971
C           -3.58705482098247       -0.80454549447284       -0.05634679008899
N           -4.71414516070359       -1.59246873788587       -0.06849094794748
H           -5.57447668067856       -1.10510478601181       -0.25596008048865
H           -4.64199273368994       -2.53340292310389       -0.41552144300631
C           -2.33824127493949       -1.46828252183279       -0.02575005726493
H           -2.35500570217832       -2.55281771855916       -0.05303627971206
H            1.46359936084435        2.37091605191198       -0.06754639607053
