28
 energy: -51.419367244946 gnorm: 0.000851896494 xtb: 6.6.1 (8d0f1dd)
N            5.69222488751588        1.35096122655533       -0.00043061475523
C            4.64199409114731        0.88415116358484        0.00201204823117
C            3.35982093116642        0.29853216106099        0.00061399593458
C            2.27486135715111        1.15019649353226        0.00056307780528
C            0.95508817326447        0.72414349112627        0.00036665273559
C            0.34790337039715       -0.64087150063514        0.00019311877343
C            0.92246266805254       -1.88440593240768        0.00001066308257
N            0.19720752862715       -3.02092559105204       -0.00015416106296
H           -0.80933190671616       -3.00376514643875       -0.00000035714289
H            0.65822330488083       -3.91360608374107       -0.00016358186562
C            2.36566297349814       -2.05656232342354       -0.00000344836800
C            3.36005859867780       -1.14346658957554        0.00030001002699
H            4.36441150398764       -1.55537874822351        0.00034912187742
H            2.67284480266719       -3.09587007457195       -0.00014353622952
C           -0.95473812590145       -0.05415685211447        0.00028238001348
C           -0.30625464369996        1.31841352203773        0.00042398588548
N           -0.79199354829551        2.53916618326328        0.00059389990896
C           -2.08096816260605        2.76937210619983        0.00064159461149
N           -3.15603274469948        1.98013969827620        0.00058998805296
C           -3.30001609343619        0.68303863901754        0.00048174224297
N           -4.58787028587052        0.26157726435516        0.00043796798341
H           -4.83151424497421       -0.71298515281736        0.00062117675653
H           -5.30700239067230        0.96306175109435        0.00063994585519
C           -2.28116711530812       -0.36686371429008        0.00038140427738
C           -2.70996509279317       -1.70374398821604        0.00084230888013
N           -3.05279165371711       -2.80328944506821       -0.00007300726260
H           -2.34377381498254        3.82322331467762        0.00080122996021
H            2.45498041913919        2.21779786339400        0.00082799569161
