30
 energy: -45.250911649628 gnorm: 0.000725849514 xtb: 6.6.1 (8d0f1dd)
N           -4.81425401044410       -0.86708409545213       -0.12490763640108
C           -3.45609174640680       -0.64707312045984       -0.04632272423690
C           -2.66484600755645       -1.79325340347867       -0.03484386513356
C           -1.26662239604208       -1.90039298282641       -0.01499678158162
C           -0.41082479760366       -0.84764783110430       -0.01432610476323
C           -0.63765821206135        0.61315069221542       -0.03558849997104
C           -1.84464962694636        1.32688468127144       -0.02845624296996
N           -1.78082155756441        2.69412259421543       -0.06645492134306
H           -2.60968727879299        3.22156123192401        0.14931377507258
H           -0.90028019784341        3.12047997472146        0.16171181741820
C           -3.09282020026857        0.71991204912112       -0.02420328589478
H           -3.93495625675218        1.40518186324778       -0.01939834335523
C            0.74060795931767        0.86079689358973       -0.02600878874878
C            1.00958791848276       -0.61368580513831        0.00326213092566
C            2.15000753633409       -1.32912130657796        0.03303062386447
C            3.46101637539771       -0.76667187991796        0.03992019664288
N            4.49955521427667       -1.68517551741488        0.15772949480174
H            4.30061825898900       -2.62270193414202       -0.15185043632397
H            5.41692360320541       -1.35436466226781       -0.09572660745636
C            3.79502286597753        0.57460032940354        0.00322830433443
C            3.01967301094864        1.74583988963864       -0.03889706480166
C            1.64826205639388        1.90493937207510       -0.05487420347491
H            1.27326283718577        2.92226181954853       -0.10087587343495
H            3.60043253463293        2.66035976737943       -0.06853418393927
H            4.86543745543310        0.76063584481669        0.00977908822154
H            2.08948054510446       -2.41197199279318        0.05660298408950
H           -0.85488679119709       -2.90272123286324        0.00281181909472
H           -3.21096578862403       -2.72907367379465       -0.04471473459565
H           -5.43596065004477       -0.11022603561605        0.10129241209821
H           -5.15439314283138       -1.79231761352090        0.07320731536207
