29
 energy: -45.532404056235 gnorm: 0.000877108302 xtb: 6.6.1 (8d0f1dd)
N            4.30115489683558        1.35455744673629        0.02322072989320
C            3.18484204522795        0.52962105751633       -0.01025703112613
C            1.92640567999363        1.20375335012497       -0.02968289748360
C            0.74629980465596        0.55240105671642        0.00502637038583
C            0.46058810479271       -0.94578985388712        0.01704506569054
N            1.21174876584420       -2.02192049261780        0.05399965384544
C            2.52668052442699       -1.93984296998807        0.08173128870423
C            3.40067075529313       -0.83927916908985        0.04460994091574
H            4.44947542984274       -1.12207938111440        0.05740948458186
H            3.00865570817260       -2.91216468838255        0.12383892600070
C           -0.90503556214575       -0.68197630660822       -0.02588417247382
C           -0.66602922265338        0.77554185088645       -0.02274096516134
C           -1.54826985097119        1.82812035202902       -0.00233077349020
N           -1.08343071694874        3.11820196182523       -0.01218048145405
H           -0.11828874610882        3.25993904200165        0.22942111724730
H           -1.72165422618311        3.85159255517304        0.24665834784968
C           -2.95883364985181        1.63931817608326       -0.02497713141410
C           -3.69226176749289        0.47642282887947       -0.05152650880336
C           -3.35067961831023       -0.88037491175071       -0.05443327463464
C           -2.07900846798171       -1.45128859383614       -0.04194938961009
N           -1.91404418967705       -2.79432397683045       -0.06564479346167
H           -2.69675397792334       -3.41468584084315        0.03821803708193
H           -0.97539696585175       -3.14856388725821        0.01841274982657
H           -4.18158251343011       -1.57533254848308       -0.06783419359520
H           -4.76524247684537        0.64238352980372       -0.06448287484736
H           -3.53215476550226        2.55924391929386       -0.02020717253727
H            1.96532273717139        2.28819009809910       -0.07985375128303
H            5.18286889695776        0.92360177386660       -0.20376524214261
H            4.18682149266296        2.28407464965431       -0.34681286990463
