27
 energy: -42.098720248713 gnorm: 0.000742807013 xtb: 6.6.1 (8d0f1dd)
N           -4.48853849118122       -0.51413938829082       -0.09377503712847
C           -3.13180690116284       -0.38745285633431       -0.02995086191962
N           -2.54489558781911       -1.58128222526337       -0.01308976500050
C           -1.23505518590276       -1.82242079310692        0.00042931952151
C           -0.22249314537287       -0.91208984440273       -0.01206477709454
C           -0.23888511102792        0.56397554877737       -0.02861060078168
C            1.16283980661568        0.60927138415160       -0.02351096069683
C            1.21414069000775       -0.88873459297213       -0.00272688560220
C            2.25390511930015       -1.75227306688721        0.01913576456705
C            3.61195060809265       -1.35541266748210        0.02766453824666
C            4.14288752629894       -0.08752577312531        0.00479017664622
C            3.54112274117571        1.18458092937705       -0.03311190142479
C            2.20099766261753        1.52123632101986       -0.04728795951779
H            1.96189296531062        2.57958217025664       -0.08442875037370
H            4.23742964631894        2.01449139754747       -0.05399578090630
H            5.22752084102242       -0.05248434673962        0.01446795367745
H            4.32918601743023       -2.16687410010830        0.05381463760791
H            2.05007654639547       -2.81631872283970        0.03379567260816
C           -1.34505121944842        1.42246474144353       -0.01266822228759
N           -1.13489354845859        2.76854377506679       -0.04157534734702
H           -0.20668797854651        3.11009529651102        0.12861308942380
H           -1.90260728112161        3.39263670259525        0.13411952216470
C           -2.65190052910282        0.94200777353035       -0.00622349059001
H           -3.42820429508422        1.69967070697886        0.00129516415383
H           -0.99820552244295       -2.88294326720831        0.02416538701148
H           -4.85814100345933       -1.44442555268316       -0.00758181524135
H           -5.09552304205487        0.27094337638819        0.05457981688359
