34
 energy: -62.551918050030 gnorm: 0.000910693018 xtb: 6.6.1 (8d0f1dd)
N            5.67898344946263        1.66023551818886       -0.13366896798048
C            4.75296183605898        0.97614934643037       -0.10080115425087
C            3.60985810559616        0.15959507915862       -0.05799554493419
C            3.88976998359890       -1.22352187956787       -0.07844857875207
N            3.18795657991356       -2.31528676858657       -0.01324984086270
C            1.83471526851077       -2.40577048371057        0.05314862985384
N            1.40840287398723       -3.69495774041655        0.12387929116184
H            0.46422168816603       -3.89931611018577        0.39516953775345
H            2.12143127295366       -4.38842181931053        0.27335131765647
C            0.95195242853537       -1.35424737966124        0.00321829465855
C           -0.45605397404368       -1.15250588619291        0.00817094247829
C           -0.23140734615387        0.33170572336325        0.01803081360077
C           -1.17508074707617        1.35626310114065        0.04135640474859
C           -0.71074486863048        2.68159918325172        0.05533820420938
N           -0.32405445157282        3.76740293187841        0.06022939402524
C           -2.58058186225677        1.18553542146183        0.05478079531501
N           -3.32467454698890        2.32543364088406        0.14413567986712
H           -4.32638039931657        2.28704685100519        0.07831663369630
H           -2.87176628133568        3.22167740287521        0.10794910121444
C           -3.31033935440385       -0.03619725504467       -0.00809806835400
C           -4.71115692391047        0.14020822210287       -0.03869689244062
N           -5.85396235028959        0.27102202618826       -0.07975445441410
C           -2.90889849073957       -1.38875019056778       -0.05801929681626
N           -3.89368377980265       -2.33315876953751       -0.08598869481554
H           -4.85464609773053       -2.05958591398574       -0.19890090242288
H           -3.65234706483652       -3.29092975012826       -0.26495195048997
C           -1.58807094296500       -1.89480201013377       -0.04428560683605
H           -1.50350606118356       -2.97441303476712       -0.09199892716419
C            1.15480356618889        0.12634374676717       -0.00402429900996
C            2.35619696560630        0.84341914019558       -0.01682017546916
N            2.37843065010444        2.18520788570248       -0.00086414663706
H            3.26603394669452        2.66201238213581       -0.01495925182911
H            1.53326813300126        2.73231837617304        0.01486617545906
H            4.95638090225798       -1.43905294240698       -0.14498631621906
