32
 energy: -53.508617344699 gnorm: 0.000858338868 xtb: 6.6.1 (8d0f1dd)
N           -4.18165695247559       -2.62247988587398       -0.02663648754532
C           -3.42102339008724       -1.75310009962411       -0.01203334089676
C           -2.47630293160797       -0.72189338153613       -0.00239846094031
C           -1.12296081509930       -1.14373734514687        0.00747676442921
C           -0.05671742418925       -0.25440034065068        0.00311714621882
C            0.03856911896459        1.21688133685707       -0.00970028081522
C           -0.96374583014623        2.17057267519196       -0.00318599835752
N           -0.62624816351823        3.49637562940400       -0.04910518710843
H           -1.32524812610840        4.18000592947172        0.18589119764901
H            0.32790295990120        3.73648334277666        0.15345643260369
C           -2.33077993895136        1.84074990209737       -0.00404541973742
C           -2.98881698833229        0.61487357326897       -0.00685504246753
N           -4.35297344159638        0.69071851065970        0.03011933069821
H           -4.80535689954637        1.57501494763306       -0.11513999977849
H           -4.89997036590577       -0.14471353642167       -0.09007051610704
H           -2.99573657322058        2.69875940725439       -0.00226160218476
C            1.45402701468578        1.14803544791286       -0.00423009917268
C            1.34218737017729       -0.36802604393573        0.01570204782702
N            2.18857525823606       -1.35860954525787        0.02558303844743
C            3.50949144610311       -1.16507791035007        0.03226225316254
N            4.22682139538830       -2.33964977147292        0.13659238017851
H            3.69951464217134       -3.17846725356514       -0.04107196704142
H            5.18093483972570       -2.34196446936039       -0.18147524446094
C            4.25415776715136        0.03426608512237       -0.00540106273901
C            3.86936985154227        1.35998002646448       -0.04073513760568
C            2.57822273622300        1.91538619128322       -0.04204085238194
H            2.50826198724877        2.99713642509917       -0.08282637865557
H            4.68321533511565        2.07489786878781       -0.07445124016375
H            5.32682199995330       -0.13074421065482       -0.00688664817200
N           -0.82645236390617       -2.46167342621761        0.00591904407674
H            0.14437181151989       -2.72022975350047        0.05321222149147
H           -1.54852696651616       -3.15847483881557        0.06298623874911
