27
 energy: -51.699800860981 gnorm: 0.000830781621 xtb: 6.6.1 (8d0f1dd)
N           -3.74466733692380       -3.22815578423125        0.00013017924737
C           -3.01414419686295       -2.34057791954279        0.00218740119454
C           -2.07942849595941       -1.28441628262092        0.00023381328047
C           -0.70469424726806       -1.68288889243577       -0.00047737357656
C            0.31659273105651       -0.73750426106263       -0.00127078474330
C            0.31673818345993        0.73744362321204       -0.00161976403035
C           -0.70436029336152        1.68303131657958       -0.00128608857817
N           -0.37591960472926        2.98144160862576       -0.00175392940657
H           -1.08377798076284        3.69761799414171       -0.00151239300747
H            0.60061767814012        3.22965407334114       -0.00231403974258
C           -2.07917694815867        1.28484058723926       -0.00045734232015
C           -3.01364008648080        2.34120705607545       -0.00028870723998
N           -3.74383740659104        3.22887440746242        0.00028301577353
C           -2.62120795670229        0.00026412793576        0.00018701148086
H           -3.70860052341866        0.00037025557773        0.00089970933219
C            1.72005746686724        0.77035532057378       -0.00233905221187
N            2.68114099009899        1.64714578901454       -0.00292128540179
C            3.94494690825774        1.20409586113544       -0.00338105209824
N            4.47753047171719       -0.00044013573253       -0.00356086980327
C            3.94470957748310       -1.20487133411403       -0.00319417247022
N            2.68081677244242       -1.64767261296600       -0.00237479821681
C            1.71990540609577       -0.77069283812339       -0.00199467606503
H            4.67868200398923       -2.00617572232037       -0.00362903695257
H            4.67907698121872        2.00525588676689       -0.00372334415798
N           -0.37650814568001       -2.98136515230881       -0.00026811145839
H           -1.08450412233662       -3.69740427410514        0.00030162873269
H            0.59998067310903       -3.22976858441792       -0.00076540286036
