29
 energy: -55.153923500926 gnorm: 0.000451427152 xtb: 6.6.1 (8d0f1dd)
N           -1.15580872161965       -4.21011665960035        0.10001702986660
C           -0.39995582281533       -3.34302101046137        0.10076983841458
C            0.48312909148685       -2.24791274829290        0.08018765412721
C           -0.05488734527927       -0.96502173179677        0.06929867183600
C            0.67474127692227        0.36201825552462        0.05311287623855
C           -0.56807005035156        1.02920704241781        0.08927509841310
C           -1.27218749781736       -0.28933717077768        0.11233770700228
C           -2.65920506174078       -0.51722394213955       -0.04036378583268
N           -3.13102696668613       -1.72468426230506       -0.38284073945920
H           -2.54749674058791       -2.54672846846180       -0.38326429313818
H           -4.12974926033828       -1.82753905906771       -0.45275732095062
N           -3.57892306885362        0.42390370904653        0.15305017345073
C           -3.38773497468290        1.70871488967913        0.38729590544505
N           -2.42485490464397        2.56266904684411        0.17982623580361
C           -1.12333508970022        2.29829112475043       -0.05648403319482
N           -0.39422346249250        3.37559129483170       -0.40013311710177
H            0.61231865270863        3.35570007310721       -0.40762437292285
H           -0.86790755043866        4.26303983486642       -0.41085571807018
H           -4.29237122465022        2.18870851069463        0.76294792556935
C            2.02293438111908        0.62288113265413        0.05797034226861
C            2.45482130708812        1.95969184126078        0.07106956589905
N            2.80026291753237        3.05805647478205        0.07327191250348
C            3.03189080221155       -0.40756601897636        0.03995675139001
N            4.32605686116041        0.00660773907040       -0.00071870463826
H            5.03898604221454       -0.69972333498368        0.03740178845031
H            4.57187210688328        0.97639670754012        0.08732694632978
N            2.90746910822841       -1.71849314860525        0.03818890678407
C            1.86113244141883       -2.51507553769816        0.05382464656690
H            2.14223999202397       -3.56484473590363        0.04862662314951
