29
 energy: -51.132551784375 gnorm: 0.000256176012 xtb: 6.6.1 (8d0f1dd)
N           -5.26447423510260       -1.39020879173480       -0.00213697469763
C           -4.14480159795299       -1.13014690523099       -0.00520193229773
C           -2.76557623708599       -0.81843943359062       -0.01100725470234
C           -1.94727283199420       -1.98974296674668       -0.03885733889691
C           -0.58795708427538       -2.12250991892087       -0.04250150348476
C            0.30863584594597       -1.05164295747037       -0.02093709780311
C            0.01105542602166        0.40456229072390       -0.01078511305685
C            1.43900992672500        0.67529753627964       -0.01293519463011
C            1.67652021544674       -0.78567830050909       -0.02365426897627
C            2.91851314742443       -1.46085267085895        0.02113411688680
N            2.92043679026457       -2.81194807366674        0.05097674541606
H            2.05470665136966       -3.31814437620711        0.07334829468754
H            3.78497299288817       -3.31891908832668        0.11826046393595
C            4.12226461738758       -0.76383242942623        0.01974857562573
C            4.35982208886422        0.62583758724595       -0.04754617618298
N            3.62348397308926        1.69891892188234       -0.02823464555386
C            2.27124816862111        1.73739120233580        0.02706079268949
H            1.86935530843799        2.74363358408819        0.08292364532544
H            5.41789912943025        0.87532973871879       -0.12085013294127
H            5.01601471037474       -1.37603998968704        0.03953351529119
C           -1.13813419398536        1.12014390312307       -0.00180783810542
C           -1.04633829786074        2.53269832844534        0.00138107457873
N           -0.99695985318115        3.67919677098194        0.00341734011579
C           -2.47056250953564        0.54473890006570        0.00813942610093
N           -3.49456934554260        1.43775813558190        0.04287943595123
H           -4.44640502749488        1.11451221279685        0.03569535208274
H           -3.30998290420162        2.42537282222274        0.03383088274212
H           -0.18914704409085       -3.12923684425032       -0.06793059894316
H           -2.52350226125427       -2.90712075343638       -0.05727343049157
