30
 energy: -54.076874896052 gnorm: 0.000777201910 xtb: 6.6.1 (8d0f1dd)
N           -1.20540295649497       -3.66440116624560        0.03394684826988
C           -1.38872442438029       -2.52502620724471        0.00876639211051
C           -1.58526342422250       -1.14059862698029       -0.00222781298650
C           -0.48745104194048       -0.28217380234766        0.00428394504860
C           -0.50387042036482        1.24238439921619        0.00568446301557
N           -1.43919319958998        2.13084833609358        0.01284429230221
C           -2.74329984543577        1.77252431031448        0.02011450587756
N           -3.57736399721666        2.84355987716596        0.08156759753398
H           -4.56168689195135        2.69682338059950       -0.04549972843389
H           -3.17887404031672        3.75699581831106       -0.03640120440484
N           -3.35899696178446        0.60769620782259        0.00226690126514
C           -2.91874293391696       -0.64287790415220       -0.01504359417007
N           -3.92983887446926       -1.55744024788289       -0.08941677204481
H           -4.86563566038788       -1.21474078734617        0.03306959356112
H           -3.74046970906761       -2.53246981724245        0.06314105458726
C            0.91173045804374        1.24106431353375        0.00396021797872
C            0.90111690868353       -0.25451930233837        0.00487958130091
C            2.00643165344127       -1.13449223732354       -0.00285602108577
N            1.80170304828210       -2.46370298687582       -0.01816128829900
H            0.87801630408882       -2.86424475691002       -0.01234758637268
H            2.60828027399936       -3.06350854712644       -0.01919312860769
N            3.28407097031773       -0.78427460471319       -0.00202223690987
C            3.82291340194569        0.44626855042499        0.00807063565929
N            5.17923762957635        0.36067398277164        0.03680259152106
H            5.58967908652562       -0.55417504935089       -0.01827094544167
H            5.75911789761445        1.17592922224005       -0.03683408254686
C            3.28885847778755        1.74560139822750        0.00514088611891
C            1.94858466057796        2.12856986476506        0.00348698769704
H            1.72188529917083        3.18658845388785        0.00201057588726
H            4.02376705328471        2.53990681990607        0.00871730386858
