27
 energy: -47.688667082909 gnorm: 0.000754602560 xtb: 6.6.1 (8d0f1dd)
N           -5.33421494783740       -1.02787426892065        0.02888847342257
C           -4.31384085650227       -0.49951884284830        0.01792412826126
C           -3.07292152587381        0.16763171958719        0.00775925139536
C           -1.92960021123718       -0.61430438552813        0.00557599462087
C           -0.65424637604022       -0.07282733284655       -0.00319767407822
C           -0.25177795609079        1.36556442233497       -0.00995709565442
C           -0.97016630205464        2.49547642513299       -0.01261091848736
N           -2.34006086420288        2.58620598773791       -0.00913152553094
C           -3.17903928901059        1.61488217894340       -0.00066129549791
H           -4.21330468810693        1.95908783962562        0.00028794536156
H           -0.48933873242153        3.46774080963674       -0.01817408717058
C            1.14352209569098        0.93173752563719       -0.01180096689133
C            0.68348574839505       -0.47059991474030       -0.00639153986314
C            1.44957706326877       -1.65017969117612       -0.00658450432640
C            0.76194432403162       -2.88429381507007       -0.00177918838018
N            0.19868659487276       -3.88397621588745        0.00030049534900
C            2.83357147778087       -1.67148197983479       -0.00927084250047
C            3.75216472498655       -0.61060895023092       -0.00704626289881
C            3.59638527229886        0.76759768323642       -0.00732482752342
N            4.72270798449525        1.53315097356096       -0.03898478574004
H            4.65950718593098        2.52676522514644        0.09082003499241
H            5.62472782013427        1.10375872199508        0.06654103517403
C            2.35970439362067        1.50038895989180       -0.01190023450474
H            2.43691216383831        2.58076818341806       -0.01613453928357
H            4.78779158195910       -0.93372655851909       -0.00577058474076
H            3.28251843932583       -2.65748475003204       -0.00891098595450
H           -2.04000790815144       -1.69261335485041        0.01108368024968
