28
 energy: -50.640565164165 gnorm: 0.000716295016 xtb: 6.6.1 (8d0f1dd)
N            6.07723509533831        0.12853719215942       -0.04376231472304
C            4.93110411685356        0.06803105824245       -0.03610202473114
C            3.51614872516917       -0.00964827138171       -0.02670262275515
C            2.88447096517601        1.25075077572945        0.00242463136632
N            1.60156423254544        1.57830283511564        0.00612770357032
C            0.66393798692203        0.67631259885003       -0.00344838500843
C            0.63501583538909       -0.85572754133947       -0.01453615180813
C            1.67907688904492       -1.73541367670067       -0.04523350191369
C            3.01149269402873       -1.31656415151341       -0.05020660408801
H            3.76271166997334       -2.09782681224540       -0.07468051905602
H            1.49566346425305       -2.80429454281449       -0.07064109662657
C           -0.77278344664827       -0.78597286311275       -0.01170446240639
C           -0.73737134653272        0.68195818287824       -0.00708765239288
C           -1.78978333782894        1.60699160650725        0.03546247238139
N           -1.48815903093835        2.91548777854584        0.09412279324990
H           -2.22663549880830        3.59462531905887        0.13161970172445
H           -0.52173799903177        3.19251232215198        0.10307330694676
N           -3.08189772589894        1.29498227650162        0.01374585044636
C           -3.61397352100889        0.07258993188750       -0.03678157154879
N           -4.96109612617821        0.11474570496356       -0.13604222285858
H           -5.47807519995023       -0.74452097206500       -0.16585928593852
H           -5.42103941390819        1.00591171326595       -0.16535298977161
N           -3.16177995098433       -1.18168632263207        0.01721484293457
C           -1.90375529683158       -1.61006389658174        0.03856962251874
N           -1.76147454452885       -2.95252327940762        0.09202913133748
H           -2.58541006240150       -3.51863860905600        0.18781711341963
H           -0.85157710363584       -3.36332476965559        0.18666016443771
H            3.54593614552127        2.11148227924816        0.02037271979329
