25
 energy: -49.028532719067 gnorm: 0.000696734062 xtb: 6.6.1 (8d0f1dd)
N           -6.42076500452878       -0.05124125379947        0.00238253224119
C           -5.27569059104269       -0.00610861992620       -0.00104870561904
C           -3.85681804857861        0.02586075781225        0.00044090345435
C           -3.29580741584417        1.28073305596367        0.00027805758872
N           -1.98432281161928        1.66008782782476        0.00011223510270
C           -1.07202116785461        0.76754993905511        0.00007260631373
C           -1.04112811155311       -0.73477765360875        0.00020290072312
N           -2.01210451848723       -1.65070875086219        0.00040727005699
C           -3.25381955339038       -1.30220228552042        0.00041095089686
H           -3.95963930875600       -2.12525332297516        0.00039627147187
C            0.34917423065612       -0.72507078345338        0.00007491370598
C            0.38952173750713        0.75833606375791       -0.00003561570287
C            1.38741558985092        1.65065052906228       -0.00009852193758
C            2.78402316670035        1.26225241585349       -0.00014757807879
C            3.69635545282811        2.34730041669753        0.00089405655180
N            4.42142474656915        3.23514969080941       -0.00156780396186
C            3.33111388531683        0.01032546116544       -0.00022469241820
C            2.73015928016948       -1.29772208831319       -0.00015639500322
C            3.66630860209157       -2.36149753087365       -0.00135137930402
N            4.42792075949845       -3.21867339724909        0.00130103087500
C            1.39980144926263       -1.64820084586387        0.00003803204147
H            1.14358182237526       -2.70027563997569        0.00002623498702
H            4.41702656413380       -0.02025227093413       -0.00031841737442
H            1.17205747162834        2.71053184420515       -0.00006658298632
H           -3.96847745073330        2.13157983704819        0.00009982007553
