30
 energy: -54.861554649699 gnorm: 0.000941734061 xtb: 6.6.1 (8d0f1dd)
N           -0.78668336098213       -4.14554605780759        0.01095592655795
C           -1.03311895791796       -3.02328138465228       -0.00753362118808
C           -1.35557086557254       -1.65021643756979       -0.01076233027861
C           -0.31605741048618       -0.74707324565697       -0.00436009255228
C           -0.31500936808149        0.74783424506646        0.00529977047283
C           -1.35312700179229        1.65251529080163        0.01144894127248
C           -1.02816060752470        3.02499770228700        0.00492559749608
N           -0.78249978553004        4.14744617105135       -0.00615037471837
C           -2.73273638406701        1.29093554090088        0.01288713842607
N           -3.62483419766608        2.32485433930010        0.07187870018565
H           -3.29208471172135        3.26661128470712       -0.04571158139247
H           -4.60177571565215        2.15079778033085       -0.08070682767981
C           -3.27066461056443        0.00256665823323        0.00044067165098
C           -2.73458937801539       -1.28659813763826       -0.01214075163013
N           -3.62814587629882       -2.31921845156997       -0.07160663182308
H           -4.60485281189070       -2.14387093480289        0.08092071092729
H           -3.29671961907886       -3.26149900318756        0.04578583088291
H           -4.35762049835819        0.00333627453798        0.00027844236960
C            1.09722570594108        0.75079265073241        0.00486973889872
C            1.09614516172642       -0.75199278239233       -0.00401592086455
C            2.16654118213931       -1.60541129733336       -0.01296987108102
N            3.44491958723014       -1.25490693079847       -0.01108822641914
C            3.93311378117755       -0.00252032545950        0.00027347799369
N            5.27874839742370       -0.00351428658296        0.00161917839014
H            5.76531270179787       -0.88278103615809       -0.00564763462016
H            5.76660504326551        0.87502996050378        0.00970419862007
N            3.44668321494700        1.25048422359749        0.01016680593753
C            2.16874137246351        1.60275733695882        0.01195702794470
H            2.00854912435026        2.67747964389928        0.02000707949089
H            2.00484897453795       -2.67989737729836       -0.02247071586996
