32
 energy: -54.303369435274 gnorm: 0.000952276724 xtb: 6.6.1 (8d0f1dd)
N           -5.39794960669981       -1.35170364534414       -0.06379601864661
C           -4.27171416997162       -1.12329638074009       -0.03171038691404
C           -2.88164770190650       -0.86108418650564       -0.01185990379350
C           -2.11458988264343       -2.03959576300768       -0.06659198996666
C           -0.73996835700320       -2.20368376237884       -0.06137392580456
C            0.17379443604354       -1.17977489807133       -0.01508171700589
C           -0.03633598693554        0.32371241547107       -0.00286320380339
C           -1.20985766456879        1.04578409879220        0.02525683722652
C           -1.13740224856601        2.45104671184720        0.02975385257893
N           -1.08311399598226        3.60172442595318        0.01785818896225
C           -2.53302212454223        0.50207094938797        0.04860406766104
N           -3.55949094197262        1.40574286742146        0.18430733797662
H           -4.50267225820539        1.08588593217318        0.04171158594460
H           -3.37675232970118        2.38275525122579        0.03172990976398
C            1.36766974971137        0.50245807836480       -0.01456234858205
C            1.55898967275786       -0.97332768025432       -0.01342000421167
C            2.70740865016046       -1.77415420895994        0.01122880549621
N            2.55869285830576       -3.12632360852038        0.00349877688115
H            1.65105397785224       -3.52064967307498        0.17057937721576
H            3.36166535865063       -3.70941260158341        0.16190294569055
C            4.00123638214356       -1.24744930424644        0.00855782297232
C            4.39950151205110        0.08646700616041       -0.01550147894704
C            3.70559855736731        1.27478138368534       -0.03016619303397
C            2.30885390997896        1.52836986062402       -0.02577009396686
N            1.93777209819416        2.82595413110168       -0.03846617999620
H            0.97207363868287        3.10493561020932       -0.02811852936483
H            2.64151810595835        3.54266766344760       -0.03910507734043
H            4.31575829156177        2.17018920908214       -0.04397598989314
H            5.47721130374885        0.21219661603488       -0.01714859185196
H            4.80100322286159       -1.97764235212829        0.02609472552720
H           -0.38063746176383       -3.22514156019155       -0.10937887474147
H           -2.70550303056764       -2.94646989687388       -0.11640882613252
