31
 energy: -48.972466534233 gnorm: 0.000663172590 xtb: 6.6.1 (8d0f1dd)
N            3.73933038207965        2.29859483113491        0.02381097245444
C            2.80544114336035        1.27190382600986        0.04347507471426
C            1.43567264002717        1.70216746107301        0.02217096497416
C            0.40672923912777        0.84005799983006       -0.01854959280516
C            0.40065812063068       -0.67544518050217       -0.02499367479725
N            1.34929527343303       -1.59953275754111       -0.04714115422042
C            2.62569956718159       -1.28687243883528       -0.03461097589753
N            3.47262207502462       -2.38749917564676        0.00959298083340
H            3.01474329001769       -3.25463185285462       -0.22521974439781
H            4.38639108830256       -2.27401835049072       -0.39859193922111
C            3.27679394417189       -0.01935481018045        0.01822437604899
H            4.35977476795937       -0.10342570696313        0.04718616200128
C           -0.98256224429907       -0.67834763386812       -0.01269259726866
C           -1.03321891967581        0.80170890513078       -0.01852523138609
C           -2.08706445843879        1.66500734306627       -0.03212734718778
N           -1.88622480211795        3.02882873826880       -0.00618751579616
H           -2.65406053795526        3.60655598740226       -0.30807254940996
H           -0.97276713941402        3.34906668133092       -0.28079458462311
C           -3.44771535498204        1.21007055209662       -0.00415182248062
C           -3.94437328033805       -0.06165136297109        0.04014029964361
C           -3.34570600094090       -1.33840270987159        0.05759945425387
C           -1.99947091669365       -1.65674469395151        0.02301330908276
N           -1.57638498261135       -2.94699289804667       -0.01177419425464
H           -0.58677059141424       -3.10260187167439        0.08743606801867
H           -2.21574038306555       -3.69731514216052        0.18209041238527
H           -4.03340216291429       -2.17487312075860        0.09462365756447
H           -5.02912754013682       -0.10779459510492        0.06261477750251
H           -4.18029819207767        2.00917420989279       -0.01095616104589
H            1.27143286679345        2.77475914219830        0.05113393830816
H            4.68011433825811        2.05219922209599        0.28775348331671
H            3.43165256960777        3.18855992569112        0.38141504858962
