30
 energy: -54.073998920474 gnorm: 0.000751502047 xtb: 6.6.1 (8d0f1dd)
N           -4.94010355292938       -1.79180622273357       -0.26961626186466
C           -4.00930423875058       -1.11397478297661       -0.16896179527301
C           -2.87228456388479       -0.30994319749039       -0.06557067127171
C           -1.63116556899458       -0.99379068910568       -0.08185969789505
N           -1.63519755475584       -2.34733005974943       -0.15321058250451
H           -0.76707966192232       -2.83184915317574       -0.28612609290594
H           -2.49918633519144       -2.83598561392636       -0.31853528916884
C           -0.41699615467279       -0.31847661197388        0.00256427096216
C           -0.15587345449939        1.14525274821375        0.02679799439340
C           -0.99944575860979        2.20798470397862        0.02071450109587
N           -2.33572670545363        2.17189109849467        0.08289663731829
C           -3.11503406196026        1.10747234082996        0.08916076101944
N           -4.41644493114605        1.44219669178071        0.24719196268509
H           -4.63543597750486        2.41986575636246        0.32355974766988
H           -5.14623426492928        0.75095160539572        0.23030790214133
H           -0.59553006388789        3.21428209240002       -0.01384603870363
C            1.24911571385870        0.87930868386019        0.00243927545932
N            2.32496657820342        1.58102340286145       -0.02146883750733
C            3.54685299033554        0.98036852541324       -0.06197992656054
N            4.55413294426361        1.88251744890922       -0.14462247615970
H            4.31732818593497        2.84797119689180       -0.28168803711684
H            5.49430117367647        1.55777768273770       -0.27456491635593
N            3.93149776354419       -0.27155566684912        0.00871066627748
C            3.24403591292411       -1.41457783191957        0.07902114753966
N            4.06792193056045       -2.50931477502162        0.12345235542883
H            5.03993808652141       -2.32014639326110        0.29781797654111
H            3.70132392539810       -3.38927805150015        0.44011591655129
C            1.85804520188776       -1.63942801449247        0.04939301946787
C            0.95766491260489       -0.60170571495280       -0.00596034418467
H            1.52027746687922       -2.66875316250123        0.09439459452131
