39
 energy: -74.762650642002 gnorm: 0.000818398810 xtb: 6.6.1 (8d0f1dd)
N           -6.29580541540167        0.00302673722821        0.00002638440317
C           -5.14518652028929        0.00266975071521        0.00006188083930
C           -3.73152938728276        0.00198664648257        0.00025223243664
C           -3.16660146390797       -1.28521200100207       -0.16559570724252
N           -4.03833961937425       -2.30627775763412       -0.38197009849732
H           -3.70653049204231       -3.25323344854052       -0.43793103630275
H           -5.02983762851847       -2.14267898159232       -0.36221673489600
C           -1.78649135448429       -1.63660615110645       -0.11963545777802
C           -1.52677194548584       -3.01381326585092       -0.23724926490240
N           -1.35125499180921       -4.14841713322582       -0.33428739521535
C           -0.72546549728388       -0.75394295331253       -0.00445725687762
C           -0.72471064618617        0.75483829752942        0.00535649237487
C           -1.78481083582113        1.63850869867498        0.12127467669373
C           -1.52360744092450        3.01564572465881        0.23852775614327
N           -1.34680807726564        4.15022164912741        0.33553094897769
C           -3.16529926254861        1.28856693493605        0.16656396160607
N           -4.03612703852311        2.31053001455149        0.38242771196098
H           -5.02777855630385        2.14788399602765        0.36250397566527
H           -3.70339992544493        3.25716266980592        0.43856515785778
C            0.68212874379196        0.74781235314689       -0.02374041251614
C            0.68141189561082       -0.74821831256524        0.02409164014685
C            1.72439015292964       -1.66485787629736        0.14654178399982
N            1.46799893957551       -2.97669727235936        0.32182260379043
H            2.23418611758921       -3.62890838765423        0.35921352383722
H            0.53658027884488       -3.34570788448286        0.24459371061219
C            3.09584999438645       -1.27831432390396        0.14311891338547
C            4.00176375840545       -2.34364525591312        0.28468657607635
N            4.73773385926752       -3.22353130472630        0.40266585042291
C            3.69763689618303       -0.00162497274234       -0.00026774344586
N            5.05130263859430       -0.00218988753089       -0.00018176736756
H            5.55989623532039       -0.86497661746833        0.09327145962801
H            5.56063829829299        0.86018667954812       -0.09345423863442
C            3.09697197352948        1.27563871133003       -0.14349473234716
C            4.00363763314483        2.34036002961202       -0.28537575497160
N            4.74038540548369        3.21986354983614       -0.40198135045556
C            1.72588651218656        1.66349368006259       -0.14651731407621
N            1.47063152583181        2.97559452729842       -0.32158595735420
H            0.53959589684412        3.34543618476953       -0.24390361530600
H            2.23740501008318        3.62712704927007       -0.35901363227241
