32
 energy: -54.303181804002 gnorm: 0.000998989506 xtb: 6.6.1 (8d0f1dd)
N            5.67030933809704        1.13382690451986        0.05587081911873
C            4.53077318944874        0.98660263867319        0.01845532803810
C            3.12519061232582        0.82392696529819       -0.00698387768337
C            2.44714942808871        2.05045032118397        0.01477847990794
C            1.07966319016596        2.30726092429793        0.00623806379740
C            0.11438156391920        1.34211379026369       -0.00435700501940
C            0.20616252816515       -0.16964043282091       -0.00214587403750
C            1.33426931180914       -0.97510000990623       -0.02532311014222
C            1.15167798125083       -2.36864675380923       -0.02537600266667
N            0.99070813162439       -3.51010424171482       -0.00944157476268
C            2.68235738546068       -0.52074317034242       -0.04420094687944
N            3.65215098359897       -1.48827705017140       -0.14925387591143
H            3.40450968207809       -2.45085750598976        0.00067082217119
H            4.61333299424250       -1.22833407504811       -0.00915332242330
C           -1.19828030026510       -0.24504382933274        0.00846319273168
C           -1.28987369208951        1.24076989244801       -0.00040217498612
C           -2.35873956717652        2.10968535562613       -0.00423769555909
C           -3.68314870992604        1.73528503483854       -0.00378050265254
C           -4.22859979458665        0.42548589019875        0.00481756214674
N           -5.59357466031467        0.38709990823353        0.03437735649363
H           -6.11757130185948        1.23179680453766       -0.10618556676931
H           -6.07603028979255       -0.48584303524671       -0.08157918362253
C           -3.59499523664499       -0.81520998648002        0.01966975308223
C           -2.23505473587001       -1.18343123977945        0.02750907782050
N           -1.96786371312454       -2.50626561425013        0.05444562569956
H           -2.72041249587517       -3.17131624873170        0.05927619148834
H           -1.02484292378194       -2.85588557759103        0.04405344673749
H           -4.27661619430294       -1.66034532418468        0.02977001559536
H           -4.41653468746965        2.53172242054303       -0.00886884115533
H           -2.13792895665805        3.17002993097732       -0.01104148896640
H            0.76839938816026        3.34421006713110        0.01421490401173
H            3.09740722320250        2.91676831962842        0.03971726629675
