28
 energy: -50.629564795789 gnorm: 0.000915162497 xtb: 6.6.1 (8d0f1dd)
N            5.55416605927859        0.56648869417490        0.00777818808982
C            4.40643592235629        0.49724757879340        0.01102015372100
C            2.99657654386045        0.41291411662010        0.02999528817667
C            2.35979257301091        1.65838920297306        0.08035262603715
C            0.99944724606809        1.96080121284843        0.11214699370184
C            0.03226634246458        0.99347689213613        0.09066609969993
C            0.19964840049972       -0.52319190902405        0.08859445631240
N            1.21490284685940       -1.33569169096210        0.06267843669582
C            2.48032876931450       -0.91940599364794        0.00949218971758
N            3.37538162448063       -1.94363212948778       -0.10753132711317
H            4.35791725267317       -1.77446611488876        0.02176469368942
H            3.02048455109713       -2.87310354947645        0.03190988426529
C           -1.19302613984784       -0.66788231368028        0.14801781230281
C           -1.36128820216559        0.81006900230599        0.13774680429921
C           -2.55483970493382        1.51056664410571       -0.02922508607314
N           -2.55462620388664        2.82857225099025       -0.31846834082808
H           -3.43819705640550        3.29219516209809       -0.43606362687312
H           -1.69467041082728        3.33766623750542       -0.39912657272245
N           -3.77354152968274        0.96880121350863        0.11797362789885
C           -4.07807426893244       -0.29697128358079        0.29439852432283
N           -3.48092923446359       -1.45491117566285        0.12836969883759
C           -2.15961261356342       -1.65935527784790       -0.00472453992518
N           -1.78225479306403       -2.92538404871054       -0.25578989780906
H           -2.48537760701894       -3.63547514270457       -0.35768517630957
H           -0.80303852984909       -3.14750220294556       -0.29139769159287
H           -5.12627075716221       -0.42113964885501        0.57430281991875
H            0.72386734369711        3.00796682315046        0.16186851376657
H            3.03756633134265        2.50453189356398        0.09603909569331
