27
 energy: -46.106702836071 gnorm: 0.000425271818 xtb: 6.6.1 (8d0f1dd)
N            3.64403118311458        2.06199468059077       -0.01330038967187
C            2.68547651605420        1.11541674633916        0.00780606431322
N            1.41737997444443        1.70844387480647        0.01362133011642
C            0.41023165954545        0.92593077746575        0.02053192633235
C            0.22823541718861       -0.53776449166146        0.02732594972134
N            1.10766101131761       -1.56523883472303        0.01721561867323
C            2.38189576037559       -1.29425134950690        0.01799909886045
N            3.23093095982519       -2.35741756168779        0.06868611269895
H            4.20028089290238       -2.18288825627007       -0.12495332173747
H            2.84969392406908       -3.27150838710219       -0.09593339248429
N            3.08022763735125       -0.11291443907429        0.00625876515155
C           -1.14825125968865       -0.38185128489133        0.03417128927267
C           -1.06365738726555        1.07751824506168        0.01997361307969
C           -1.98416209860796        2.04827951506262       -0.00650141323094
C           -3.39932557519093        1.77711455736932       -0.02307649120933
C           -4.03893334739595        0.58180255095125       -0.02340519466767
C           -3.57264239496858       -0.77329834288168       -0.00267460740328
C           -2.29141016209535       -1.24744650552351        0.03365479334661
N           -1.99739147476464       -2.57548208112301        0.10449953837752
H           -2.71243025840965       -3.26156234187532       -0.05909390195929
H           -1.03178033271471       -2.83746448080164       -0.00296417520130
H           -4.35759952991557       -1.52068546434852       -0.00986465161173
H           -5.12203109633366        0.64339441784911       -0.04322638701098
H           -4.02587229978748        2.65987979190105       -0.04145931722371
H           -1.67417936926778        3.08358913088987       -0.01939631708705
H            4.61058341366820        1.79369125962514        0.01253566171274
H            3.36689645014987        3.02606708775860        0.01756570854220
