33
 energy: -58.823490129121 gnorm: 0.000883551958 xtb: 6.6.1 (8d0f1dd)
N           -5.96622187407359       -1.61715287212696        0.04440090156285
C           -5.01217944796967       -0.97139550052436        0.02023692186018
C           -3.82824890290774       -0.21634588722737       -0.00277397895604
C           -2.63602656341973       -0.95252655406518        0.00713669918874
N           -2.68688121205007       -2.30439806062396        0.01423551688328
H           -1.84251643842751       -2.83893278192881        0.09367350727270
H           -3.57597472092116       -2.77262593807917        0.06959821020372
C           -1.36786574744978       -0.33001889579932       -0.00396166784368
C           -1.02251943504784        1.10612525043842       -0.00673030179478
C           -1.74090524847642        2.23990661251601       -0.02214195504534
C           -3.17274089363884        2.25809679072209       -0.03796824052105
C           -4.02866720987540        1.20573321259356       -0.03003828207128
H           -5.08304705403511        1.46315587764704       -0.04207882475544
H           -3.61916659976800        3.24291549697246       -0.05703412129556
H           -1.23047737731166        3.19341031806071       -0.02358894064911
C            0.38554187453516        0.72161785240097        0.00603110546288
C           -0.01579576011753       -0.69756079988939        0.00257167784249
C            0.78876055133463       -1.83442520755586       -0.00245083831939
C            2.16791633545099       -1.84864430551222        0.00721663723392
N            2.77711323316026       -3.08082001082902        0.07136364649217
H            3.76084358724065       -3.15456931134926       -0.12511310798949
H            2.21971165270629       -3.89131231543608       -0.13446797053724
C            3.07361360061578       -0.71702695491160        0.01334853893420
C            4.43780579968358       -1.08157858182837       -0.00608557669860
N            5.55317379757324       -1.36492218429224       -0.03863171193825
C            2.86839593629545        0.66087675671980        0.02635212812485
N            3.94822834769554        1.48289041038252        0.04113725136325
H            4.87930290272743        1.10359965265808        0.04234102450699
H            3.82605512353525        2.48054098001181        0.03803836750219
C            1.58532433209180        1.34443257750858        0.01992747496447
C            1.60515399493701        2.75906289840344        0.02387019963742
N            1.63655902423340        3.90647862899757        0.02624368682401
H            0.30619950977479       -2.80460165105160       -0.01176010967035
