24
 energy: -43.724806633324 gnorm: 0.000720100469 xtb: 6.6.1 (8d0f1dd)
N            4.38462543485634        2.12178406912564        0.00044400264795
C            3.46569050212676        1.42847431737559       -0.00129335385467
C            2.35830409385540        0.56261248007307       -0.00098680892423
C            1.10422281788086        1.16042079191551       -0.00063203910118
C           -0.07788155681205        0.45307110096875       -0.00101032645559
C           -0.30106127265767       -1.01513445067056       -0.00134509327570
C            0.59471797806173       -2.04183264757639       -0.00132409315034
N            1.92485371771248       -1.94878237347976       -0.00180468517549
C            2.67536724449224       -0.86188051691036       -0.00201661352005
N            3.98808181490306       -1.15292864906711       -0.00325522965455
H            4.24914361848866       -2.12481583712813       -0.00387523549770
H            4.69175618502016       -0.43290363298166       -0.00337008393929
H            0.24126208944348       -3.06865263797225       -0.00101011433849
C           -1.71571193694814       -0.81025957125664       -0.00104046287250
C           -1.46475164159606        0.68310592494105       -0.00064512499081
N           -2.26430639993187        1.71722486667881       -0.00016251497019
C           -3.57588360639481        1.57307782828564        0.00009461111670
N           -4.38755019170147        0.51581410343738       -0.00035685185938
C           -4.13157036635915       -0.76299968893916       -0.00099171135067
C           -2.89798419281915       -1.47315265356281       -0.00127341343799
H           -2.93298160914814       -2.55533713243620       -0.00178841111875
H           -5.03210231742972       -1.37353174416260       -0.00137242058023
H           -4.11603820853913        2.51571083880703        0.00068679148584
H            1.06205522129617        2.24258086323515       -0.00013480728272
