30
 energy: -50.069125430880 gnorm: 0.000675038833 xtb: 6.6.1 (8d0f1dd)
N            4.85124104361979        1.51807105027820        0.13375832050506
C            3.86507107170291        0.91902047236297        0.07331302902002
C            2.66041787991734        0.21143130629180        0.01772025438063
C            1.48636443758727        1.00090146376521        0.00715132896878
N            1.60824777048926        2.35103265870389       -0.00083908631830
H            0.78761755457564        2.91675809771974        0.11411408374561
H            2.51363224028005        2.77278310903174        0.11971362354293
C            0.21544477125833        0.42947967891872       -0.02284114518344
C           -0.17013096146692       -0.99667908748295        0.01183406823908
C            0.57441364778003       -2.12668034696126        0.04242894180948
N            1.91156128101218       -2.21447085261683       -0.00122831443124
C            2.78297166866513       -1.22880264699036       -0.03716577201337
N            4.05616139679142       -1.68577542292901       -0.13313883252218
H            4.84499500628297       -1.06365066992269       -0.11582063639224
H            4.18934757540448       -2.68124243323384       -0.13041534460484
H            0.08881418907598       -3.09676580837503        0.09300774441758
C           -1.55983032098119       -0.60411261979743        0.01494450336228
C           -1.13575485168561        0.82149945114393       -0.02569908869201
C           -1.91919720633605        1.96041345592043       -0.07146792917938
C           -3.30157301796896        1.95017666820921       -0.06796942808182
C           -4.19948173567203        0.87674343715036       -0.02155140258396
C           -4.01291798562599       -0.49825727460370        0.03071959577787
N           -5.13681704619867       -1.28663779381455        0.13547716439950
H           -6.02831308470413       -0.87156630216516       -0.07492540628757
H           -5.04696033476264       -2.26659342962367       -0.07064500249424
C           -2.77051731816656       -1.19661842910318        0.04009999883768
H           -2.82190134103454       -2.27882210803039        0.07323654890809
H           -5.24295546767089        1.17636496235488       -0.02597987419063
H           -3.77610348992172        2.92319619296619       -0.11042701378416
H           -1.43433495604666        2.92880787373251       -0.12034358995528
