28
 energy: -45.820294243460 gnorm: 0.000693758709 xtb: 6.6.1 (8d0f1dd)
N           -4.57126513076619       -1.55916972386291        0.07880567442551
C           -3.46682822408926       -0.73346515959555        0.01536661028657
C           -2.20125971483357       -1.39554744823947        0.02217515029657
C           -1.03235098278513       -0.72614155966812        0.02336715117763
C           -0.74895375559996        0.76397406900687        0.01195228536182
N           -1.50869733779514        1.83821366662106        0.00834401944139
C           -2.82233443867147        1.74218745957543        0.01206544594257
C           -3.69069954050387        0.63723837626704        0.01011358330991
H           -4.74089381414390        0.91417068127182        0.00638085851455
H           -3.31229743078173        2.71179825974117        0.00862661788098
C            0.61847324927732        0.50418692838647        0.00718012093778
C            0.38440302155883       -0.95250227058567        0.02082843108236
C            1.28957172577529       -1.96910210057387        0.03482371270441
C            2.67539624410228       -1.76333665065216        0.03046035125768
C            3.39560931993840       -0.56194641594726        0.01430189079976
N            4.75652240927907       -0.67961025235258        0.05222031434895
H            5.28473241467556        0.16388019422596       -0.08655948311870
H            5.19805231099074       -1.56342545065281       -0.12597418343091
N            3.04611184395000        0.73858105621920       -0.00125481951775
C            1.82155612566361        1.23562494843777        0.00081319575709
N            1.71723012574459        2.57860672433089       -0.01958408455566
H            0.79890689071847        2.98768333156779        0.00769004617355
H            2.54525842288035        3.14546738355763        0.01182552068437
H            3.28987214533585       -2.65503021947650        0.04407652222652
H            0.93986181051357       -2.99419977141344        0.04832709222011
H           -2.21215248103432       -2.48013738652598        0.02771666468570
H           -4.44882178572107       -2.52064397938240       -0.19016694219022
H           -5.46616618587829       -1.15692767548034       -0.14461584280253
