25
 energy: -47.450515307509 gnorm: 0.000817694171 xtb: 6.6.1 (8d0f1dd)
N            5.36303830682635        0.40024614283776       -0.01634814040982
C            4.21423880389703        0.39615681991989       -0.00354275944799
C            2.80054031470645        0.36787774956714        0.01370420111221
C            2.21212872242832        1.62481949193448       -0.02429103937598
N            0.92692088961305        2.00849719362005        0.00493097434081
C           -0.00966248054646        1.12318469113594        0.02848363021597
C           -0.00868598536543       -0.40972837680346        0.11274905241548
N            0.95260296331204       -1.31064025964450        0.15047741323722
C            2.22532508082143       -0.96296408533759        0.08077071664972
N            3.09102322722541       -2.00607049018627        0.06071112584426
H            2.71455770473198       -2.92834103596773        0.18732673231879
H            4.08400916701246       -1.86008546024356        0.10607675463508
C           -1.38849760654622       -0.39820209077854        0.20983023495670
C           -1.42839823111105        1.09291301907489        0.07805483522618
C           -2.51600658725112        1.86061467195588       -0.23766340991893
N           -3.77132082759705        1.46620192897311       -0.02708654306921
C           -4.19866452373549        0.27825022207508        0.29474724747511
N           -3.74024962067146       -0.94843528215305        0.08178999733242
C           -2.46690267808237       -1.29327472779940       -0.01208147056296
N           -2.18320428708195       -2.56888147228058       -0.31068073671163
H           -2.92972710526909       -3.20595760278803       -0.52781917805081
H           -1.22477904366347       -2.87283520282472       -0.30176358524330
H           -5.20379292755168        0.27911508427199        0.71488597147941
H           -2.40220980248745        2.87076822858182       -0.61157224112435
H            2.89601462008618        2.46629162915867       -0.07725896872438
