28
 energy: -46.612389446168 gnorm: 0.000866377846 xtb: 6.6.1 (8d0f1dd)
N            1.72590514957629        3.19280119015548       -0.13128245266138
C            1.70014725989558        2.04183770303058       -0.06112171878591
C            1.65023258915737        0.64132711277236        0.00138875190773
C            0.39677264086212        0.00728168575556        0.02799806506254
C            0.11723978341908       -1.48716648235227        0.01926431529098
N            0.81779407779121       -2.55268877368036        0.02635913426649
C            2.17367880392399       -2.51255709730936        0.04884127235045
C            3.05060858789732       -1.46342240917102        0.03949977969236
C            2.87267872802293       -0.05079318598077        0.01186755478930
N            4.03160945260919        0.68917588142794        0.05792470299928
H            4.89847937980737        0.23375724519543       -0.16718148582066
H            3.97915918599376        1.67619839195087       -0.13249274439711
H            4.09615894831968       -1.75469867382219        0.05589802984481
H            2.60355009411698       -3.50774431805629        0.07193906269307
C           -1.29117751498080       -1.19223500013184        0.00000048183425
C           -0.96886205567880        0.25624418675791        0.01665802453829
C           -1.87610077741361        1.35134668978236        0.03872568959022
N           -1.38871107738651        2.60726543700058        0.10455521950150
H           -2.02067413563518        3.38876822578896        0.09391412158513
H           -0.40023800028868        2.79365757525247        0.07439975101602
C           -3.25835816873932        1.17975554239794        0.01218527152025
C           -4.04270532190932        0.01716804689179       -0.03433398877050
C           -3.72811001055708       -1.32144707518110       -0.05411527030926
C           -2.44283506902110       -1.90386263286829       -0.03131922378768
H           -2.37234401940354       -2.98337691372166       -0.04275876727367
H           -4.56087939225714       -2.01072842060667       -0.08933137207380
H           -5.10704801389244        0.22739610227810       -0.05570785243408
H           -3.82354241842926        2.10514063194352        0.02912487373134
