32
 energy: -59.908321344342 gnorm: 0.000906444959 xtb: 6.6.1 (8d0f1dd)
N            4.98416868975232        3.42027585568017       -0.00248072846362
C            4.19903764498308        2.58218969240360       -0.00200810780409
C            3.21924962508828        1.56680631011803       -0.00125528059415
C            1.86813340155383        2.00293907194692       -0.00127039621540
C            0.80974739223379        1.16282149102282       -0.00066478492288
C            0.65204929110409       -0.31861039295812        0.00008655055622
C            1.64221046412227       -1.31223434031424        0.00049192500159
N            1.32410487352750       -2.61289165676206        0.00124060870178
H            0.36823478012756       -2.93103017037911        0.00146765152535
H            2.05923163683529       -3.30340745995327        0.00153006509296
C            3.03671590124149       -0.98176575770380        0.00016469166284
C            3.91434144572730       -2.08585403220727        0.00067243347772
N            4.61671694315934       -2.99686810273754        0.00134556389462
C            3.68539822483015        0.25851464150527       -0.00060997264674
H            4.76889041153876        0.17352642206055       -0.00067820350570
C           -0.74697211486106       -0.18718046696332        0.00023510589657
C           -0.61778524813815        1.30374198443427       -0.00053387457814
C           -1.52774715024290        2.30398878562114       -0.00088857179512
C           -2.92043258186213        2.09838945298049       -0.00073648321950
C           -3.63557470684718        0.91400149183093       -0.00014053547271
C           -5.04035910829137        1.11959326410293       -0.00294472097177
N           -6.17395887530707        1.29825865110634        0.00291618606557
C           -3.23607784607410       -0.46439394467193        0.00049568767917
N           -4.24306283245907       -1.37844168950637        0.00075033198716
H           -4.03922939617190       -2.36252735963077        0.00121603204255
H           -5.20323909462640       -1.08164379678939        0.00056373939887
C           -1.91213332185624       -0.95833096168636        0.00073027740509
C           -1.78046928853482       -2.35934365756453        0.00081865566113
N           -1.66911783103517       -3.50542980701515        0.00208389466186
H           -3.52846157954646        2.99505025600775       -0.00138417818096
H           -1.17973771629045        3.32804378972077       -0.00150746785461
H            1.69430797291940        3.07153338120127       -0.00179893998564
