28
 energy: -51.415429044066 gnorm: 0.000417449357 xtb: 6.6.1 (8d0f1dd)
N            5.58514374227680        0.65501419119818        0.00176893010023
C            4.50942163853806        0.24535590533843        0.00109375623473
C            3.18018344878170       -0.21059399748322        0.00046706229653
C            2.18133032035559        0.78807727788026        0.00045809430073
N            2.49151862422491        2.09130266980203        0.00099563459798
H            1.74210702867559        2.76440225490210        0.00085794382458
H            3.45200926834742        2.39389477980974        0.00147442965418
C            0.81941183784233        0.43682172362141       -0.00014642618395
C            0.17521669376311       -0.89469439694248       -0.00032736268879
C            0.69706326971432       -2.13957435224522       -0.00020849227363
N            2.01695007345772       -2.45281137794425       -0.00062162374117
C            3.01792188686186       -1.62966176262666       -0.00047157917324
H            3.97234742113869       -2.15637973788147       -0.00106238766333
H            0.04870526269204       -3.00920733438471       -0.00001512990810
C           -1.12014388139652       -0.24175883632799       -0.00020931567065
C           -0.41175233485633        1.08258668803474        0.00000447736586
N           -0.82453451770353        2.33936201980842        0.00065654301141
C           -2.09787906920278        2.63853483134260        0.00120330379143
C           -3.26409744598499        1.84147988768089        0.00137473066871
C           -3.47315280577738        0.47340064160438        0.00067707738233
N           -4.75113056384240        0.01268767295911       -0.00227426929781
H           -5.52090416159008        0.65665383845730        0.00609671603572
H           -4.94179227702730       -0.97393196906698        0.00629387643615
C           -2.43681444668690       -0.54914269353184        0.00018703409211
C           -2.83994166799970       -1.90445754995690        0.00087384304549
N           -3.18935931287852       -2.99757221584632        0.00245743988919
H           -4.18049934084029        2.42235101991605        0.00190289024327
H           -2.27911037718347        3.70861047618229        0.00180153123007
