31
 energy: -54.585276098821 gnorm: 0.000314368745 xtb: 6.6.1 (8d0f1dd)
N           -5.29425120866803       -1.44618180743267        0.00101902483609
C           -4.17696867938591       -1.17479145912481       -0.00048522745716
C           -2.80210697691981       -0.84765420080041       -0.00097353312477
C           -1.97760986038884       -2.00256471306201       -0.00152989500314
N           -0.67271861944090       -2.14469253698186       -0.00212381888800
C            0.13993363657137       -1.11774830204926       -0.00194944341215
C           -0.04428843591843        0.40763037365111       -0.00110801009300
C           -1.21033259016759        1.12800303051571       -0.00090422824726
C           -1.14532328620384        2.53353917920098       -0.00037003321769
N           -1.06340172393021        3.68228176627291       -0.00043674226682
C           -2.51766585399591        0.53099848140742       -0.00100504561925
N           -3.57216977969941        1.39707763720913       -0.00237506556511
H           -3.41939427851143        2.38932604691572        0.00188810236125
H           -4.51272104976781        1.04427888056561        0.00093495528616
C            1.36516789358077        0.53852472371468       -0.00149991119573
C            1.51444582737397       -0.93731322958576       -0.00239011866969
C            2.62385401509768       -1.80479447744430       -0.00353691068229
N            2.34441872175333       -3.12384680815708       -0.00382976589421
H            1.37734362221430       -3.40479617288397       -0.00393158772598
H            3.07417263143412       -3.81327000744318       -0.00553738878676
C            3.93535717461020       -1.33779580970502       -0.00421169588817
C            4.37409303060440       -0.01079106698428       -0.00367284451302
C            3.72950658465672        1.20477782248997       -0.00237805556722
C            2.34337653866835        1.52510527848435       -0.00126094953416
N            2.01833703473932        2.83517821275769        0.00041379608855
H            2.74350203030469        3.53015682290400       -0.00051617703957
H            1.06048542794956        3.14238309692996        0.00024477145739
H            4.37781482281451        2.07323516332073       -0.00217317477691
H            5.45571886962276        0.07694047928053       -0.00441584596033
H            4.71017497948733       -2.09379765969397       -0.00525637376733
H           -2.51610698048528       -2.94494153997184       -0.00151231193376
