33
 energy: -63.637789587255 gnorm: 0.000958530618 xtb: 6.6.1 (8d0f1dd)
N            6.58565569826004        1.04490237458181        0.00221875896639
C            5.45458897565376        0.85838586004362       -0.00109100875225
C            4.05231728922582        0.63377090109547        0.00032467920598
C            3.29106761181638        1.82043784186677        0.00124499482441
N            1.97934869804406        2.00144147757422        0.00137591163179
C            1.13963369734495        1.01031070629902        0.00081823725559
C            1.24296537349292       -0.51540854455195        0.00013764712998
C            2.39418794390269       -1.27503640864790       -0.00067949126241
C            2.30307106836380       -2.68406294515391       -0.00035604832143
N            2.18141107928427       -3.82655305084230       -0.00375234284189
C            3.68589453706930       -0.71381310165764       -0.00054883269100
H            4.50625747132966       -1.42279530522395       -0.00116546961769
C           -0.16636725892150       -0.57417214419790        0.00000350893275
C           -0.25773144015991        0.89137657219795        0.00058744521533
C           -1.30763624334081        1.80965749570105        0.00022630493875
N           -0.97905611179993        3.11199211899177        0.00070664429936
H           -1.68274435388428        3.83082896666226        0.00011896431141
H           -0.00054765683478        3.35318087980691        0.00106422045647
C           -2.66385561919037        1.40600228190396       -0.00062756446661
C           -3.59097996389115        2.46453315577081       -0.00106496888013
N           -4.32456032033466        3.35217489710054       -0.00390051495412
C           -3.21052425754174        0.09314986175735       -0.00040224011596
N           -4.56205787208416        0.04489788885194       -0.00080657076543
H           -5.09979572198030        0.89541161786637       -0.00119567785826
H           -5.04464639934785       -0.83789701693059       -0.00068081693260
C           -2.56114228806436       -1.17366620219932        0.00021621675265
C           -3.43717703457812       -2.27760416632103        0.00065650284941
N           -4.13952731832323       -3.19017902127504        0.00254115727045
C           -1.18437453258051       -1.53540578159217       -0.00004035919705
N           -0.87150708136947       -2.84205308264951       -0.00020654333851
H           -1.59879170944356       -3.53844971996439       -0.00014263603875
H            0.08747331276709       -3.15046522017535       -0.00045842046702
H            3.85391723001605        2.74762012901107        0.00182098536046
