25
 energy: -42.641780347699 gnorm: 0.000823299557 xtb: 6.6.1 (8d0f1dd)
N           -3.81650330353057       -1.68044506931688        0.07484524190035
C           -2.84177982080389       -0.71925744308219        0.01939021182073
N           -1.61252417736954       -1.17438803088147        0.00894634974928
C           -0.58329722786843       -0.32498277517354        0.01835762017614
C           -0.48412228904482        1.18951694647869        0.00912550300549
N           -1.33269066950236        2.14165077878794        0.01215061485203
C           -2.66885573217702        1.84077730659748        0.03289002750430
C           -3.32132805096621        0.64791844047005        0.03461040770025
H           -4.40399520691298        0.71588436776454        0.05187871060259
H           -3.27698444465023        2.73862980655749        0.04618848275458
C            0.96174455446497        1.05321354195916       -0.00567176204119
C            0.79202378873164       -0.41595926051688        0.00443705251955
C            1.78602679352749       -1.43064280295927        0.01540191914594
N            1.34328358695862       -2.70255516572080        0.03365934115870
H            0.35012106212721       -2.86072172482015        0.05896392906934
H            1.98145886283465       -3.47751311004854        0.06678790353906
C            3.13712950032184       -1.12111693636939        0.00216727610683
C            3.75500249619372        0.15202213445582       -0.02881990297029
N            3.35620445528063        1.39002052280313       -0.03397196168438
C            2.06878293000487        1.82469877585967       -0.01518124102280
H            1.97972602009339        2.90531402883980       -0.01261904890037
H            4.84359597593289        0.09210891982612       -0.05137747595497
H            3.82033212611020       -1.96187166236614        0.00905935452648
H           -3.51437932553147       -2.62640685917579       -0.08529097922436
H           -4.75387923082442       -1.44619032556895       -0.20063915483333
