25
 energy: -48.245569500653 gnorm: 0.000539430489 xtb: 6.6.1 (8d0f1dd)
N           -1.31070060704818       -4.13949578128755       -0.00352993957154
C           -1.53070451436360       -3.01430112438743       -0.00376713989851
C           -1.79065389919646       -1.62347669446980       -0.00269206910849
C           -0.72553649044440       -0.75002920967539       -0.00207865012372
C           -0.72461205329445        0.75122241928699       -0.00130900650126
C            0.68795646548362        0.74433622920706       -0.00110161502950
C            0.68703812594514       -0.74488459684475       -0.00187267695307
C            1.76317227413651       -1.60544409704068       -0.00181943179076
N            3.03210833934192       -1.25295346690911       -0.00144708610036
C            3.53086304814434       -0.00202892663920       -0.00098500739393
N            4.87063782303927       -0.00285715212485       -0.00125062992696
H            5.36116014110412        0.87523604534099       -0.00084165863009
H            5.36007247493380       -0.88155703904945       -0.00178314745056
N            3.03365213766604        1.24950755562902       -0.00011903013270
C            1.76515100992950        1.60356545284704       -0.00013009515667
H            1.60026408260894        2.67699944349597        0.00070654016875
H            1.59695887964315       -2.67867388792319       -0.00210644803882
C           -1.78865337065219        1.62598021515870       -0.00104121634887
C           -1.52699519775178        3.01648219372743       -0.00122705292463
N           -1.30562841070809        4.14139115097297        0.00129550044522
C           -3.14158545391517        1.20146368282817       -0.00137781538409
N           -3.67434486438286        0.00241131187826       -0.00202198293252
C           -3.14306053030666       -1.19729694621405       -0.00262517224864
H           -3.88787518097895       -1.98826711905238       -0.00318104230353
H           -3.88542603413362        1.99335000284529       -0.00110699626473
