33
 energy: -58.034995324806 gnorm: 0.000728132242 xtb: 6.6.1 (8d0f1dd)
N            4.96526660863400        1.73496909906647       -0.12892516151750
C            4.06045932820546        1.01819120824160       -0.08749074658407
C            2.95811435358802        0.15673774871692       -0.04025198978599
C            3.29282326928911       -1.25576860001026        0.03605918173751
N            2.57732199437327       -2.35400882137053        0.03424471910902
C            1.23572295647177       -2.44568682713531        0.00013336042449
C            0.34934133043017       -1.42898137134636       -0.00288646334795
C           -1.08674379184547       -1.25757116683310       -0.00375907131040
C           -0.88816510636998        0.21581465955746       -0.00788811705800
C           -1.86637931530742        1.22475897870975        0.01553747097954
C           -1.44796845924960        2.56092822452038        0.06038381689201
N           -1.10680503104964        3.66227882999757        0.11135472073411
C           -3.25652842167709        0.99270216935031        0.01317248961849
N           -4.06646674555919        2.09845851301290       -0.03178724844100
H           -3.65718442051527        3.00469742811706        0.12105125067081
H           -5.04467700539483        1.99775181821164        0.17286049496758
C           -3.93701311991370       -0.24450214635824       -0.00149454119890
C           -3.52121614774006       -1.56065988759712       -0.00363587036138
N           -4.48834060142793       -2.53069194202347        0.04578365228383
H           -5.44305972058143       -2.27572386862263       -0.13878878194478
H           -4.22659044591887       -3.47713539870468       -0.16831837380141
C           -2.17556081117463       -2.04419440944225        0.00257316985368
H           -2.04431809978651       -3.11904753304959        0.01050321986055
H           -5.01716439443687       -0.12660816343301       -0.00800110506887
C            0.50005360504028        0.04563471408912       -0.01063927493589
C            1.69679107584399        0.78908605233607       -0.05203702706052
N            1.65616730528242        2.13374179391731       -0.11794603450624
H            0.78432905666288        2.63465493993114       -0.08628102366393
H            2.51629456745098        2.65634862623819       -0.13329528956456
H            0.88228578860123       -3.47203253829584       -0.01121037856793
N            4.62114258150857       -1.51441585572647        0.11956461974780
H            5.30861122757996       -0.78198280989355        0.10251678168749
H            4.89848425818625       -2.47904920267466        0.15477916795195
