25
 energy: -42.656497738773 gnorm: 0.000458738248 xtb: 6.6.1 (8d0f1dd)
N            3.76527476079852        1.72122719922823       -0.08894418990074
C            2.85182245926936        0.70950899386886       -0.07743826986540
N            1.60234949512287        1.11214281469670       -0.13541923878670
C            0.58436719429194        0.26324361242200       -0.12091338650698
C            0.47660157080806       -1.23704207544181       -0.03566695820455
C            1.43301751320592       -2.18198518565421       -0.00024145509746
C            2.82027074143234       -1.84777912597101        0.01154304886437
C            3.40720954538897       -0.62061953670793       -0.01616515002696
H            4.49204494266660       -0.61930337869278        0.00213260897560
H            3.49503074529855       -2.69467407251018        0.05210346942703
H            1.17075850849730       -3.23180237861820        0.02435327899963
C           -0.96178747237806       -1.09338379754782       -0.05777503362606
C           -0.79520522770077        0.37664808878216       -0.18759752392917
C           -1.79453874081491        1.36411551708267        0.00721126622735
N           -1.38983123704079        2.62428897275634        0.24122323404185
H           -2.07163348309235        3.33729150759699        0.43117209095419
H           -0.40638991888237        2.83087019375155        0.22220046733269
N           -3.09285473380929        1.13550634084590       -0.03323830524804
C           -3.67311222785093       -0.05707726749380       -0.22200025605749
N           -3.34257795638988       -1.29236372633630       -0.01552983492778
C           -2.09768709730141       -1.78908731316072        0.17760514435701
H           -2.07866678115480       -2.83769973179359        0.45354756785162
H           -4.71164882268797        0.05658341147622       -0.53749517251834
H            4.74926524827436        1.54669867422306       -0.01941016738350
H            3.42816572284881        2.66543901199763       -0.12253799455173
