30
 energy: -54.084916848513 gnorm: 0.000773524838 xtb: 6.6.1 (8d0f1dd)
N            4.89836977801561        2.38248643796842        0.03474267764938
C            4.00300844814394        1.65490890441884        0.02472464048919
C            2.91707835523877        0.77166044758131        0.01341802468422
C            1.62839628182318        1.39130176519606        0.01494119624353
C            0.47857326021216        0.69207713512322        0.01054005331210
C            0.24627152202723       -0.76857565201968        0.00207044468517
C            1.17414154423731       -1.83321765201719       -0.01659478042765
N            0.66685818398205       -3.07962185612639       -0.03450230874627
H           -0.33218094433008       -3.19069757958015       -0.05515545037658
H            1.28461091015078       -3.87054772937892       -0.06907538536660
N            2.48731273770420       -1.72925901161877       -0.01632246327519
C            3.23397882150053       -0.60754275260011        0.00239658245300
N            4.55162362661653       -0.92409978505927        0.00715354568818
H            4.79996264377278       -1.89673100052299       -0.00213549341888
H            5.25819697399882       -0.20926224983656        0.01853670927694
C           -1.12963009627151       -0.59540114423619       -0.00132073592256
N           -2.19436454796696       -1.38243359851855        0.00018608920297
C           -3.41143222912310       -0.86955479044275       -0.00473398090899
N           -4.41743622208048       -1.78818452779263       -0.05470267448603
H           -5.35007263996986       -1.46401284368412        0.12747330110519
H           -4.18530504384642       -2.74814278089461        0.12666971846865
N           -3.88486103569258        0.39266344911117       -0.00835108440987
C           -3.28492230043257        1.55239450398330       -0.00383613382359
N           -4.13228334361792        2.61535752185438        0.03059945419746
H           -5.11444683794373        2.42971618348794       -0.07450473980780
H           -3.79318126410663        3.54596793976296       -0.13265250598431
C           -1.87646014870207        1.87432142410133        0.00718564495837
C           -0.95390889617222        0.89982749625343        0.00691107954814
H           -1.59669245057469        2.92041271484759        0.01607798204129
H            1.61537240140676        2.47394921413880        0.02115853845053
