27
 energy: -42.084233080769 gnorm: 0.000707773687 xtb: 6.6.1 (8d0f1dd)
N           -4.00208762137700       -1.61101617771457       -0.16106637053670
C           -3.00008825083922       -0.66392418376316       -0.04841987318110
C           -1.66381077219740       -1.17963896817372       -0.05624489010221
C           -0.57393974590027       -0.38966890436371       -0.01152180526370
C           -0.45346733964946        1.12354709446537        0.01428551416015
N           -1.33627659312548        2.09727613160379        0.03200727430767
C           -2.62581831908160        1.86488194645290        0.03085632295625
C           -3.37357718222422        0.66732895668184       -0.00282833857842
H           -4.44746673925177        0.82933335017033       -0.00347759807343
H           -3.21977488903845        2.77355221134012        0.05995738473636
C            0.93689024360265        1.02331756396165       -0.00112481355405
C            0.85910464711458       -0.46416604568516       -0.01666904449312
C            1.83205456211563       -1.41930801895305       -0.01126626426993
N            1.51942790149335       -2.74966129526271       -0.04690781075771
H            0.56853353473111       -3.01718902106283        0.13342856890886
H            2.23461561377708       -3.42226732530510        0.16893700931170
C            3.23598174164497       -1.08999680090577       -0.02156717813395
C            3.84465575810544        0.12669106304661       -0.02156991461308
C            3.34307298145855        1.45634429397372       -0.00411355286015
C            2.03743173452363        1.87381701957125        0.00685562658049
H            1.83283475962655        2.93682038244349        0.02343407368487
H            4.10478677643997        2.22501674944731        0.00065377335459
H            4.92925436048490        0.08166139868896       -0.03215361004714
H            3.88865945483676       -1.95573091422456       -0.03433667096746
H           -1.57137625820076       -2.26068815666752       -0.11059741916128
H           -3.78230722790582       -2.55450468488532        0.11101305096937
H           -4.93898274866372       -1.31294304568013        0.05528669982324
