28
 energy: -52.222598156226 gnorm: 0.000214629111 xtb: 6.6.1 (8d0f1dd)
N           -5.90028949550122       -1.57710897351274        0.00021072299947
C           -4.78097558937101       -1.33180425912607       -0.00007074634024
C           -3.39183330163091       -1.02636012468814        0.00031318414078
C           -2.56031934149360       -2.13527769502448        0.00043569673682
C           -1.15057374501891       -2.17541572261323        0.00055861838267
C           -0.35769570598895       -1.07873581982959        0.00054165528172
C           -0.65234042299541        0.39146366753818        0.00041904153770
C           -1.90063683654630        1.01915106712945        0.00032303065779
C           -1.93396617851637        2.43152845600014        0.00017146241523
N           -1.91545869192870        3.58000650717952        0.00025644150244
C           -3.12485300580181        0.36249635028613        0.00025334844760
H           -4.00386740946169        0.99690896052616        0.00013448569126
C            0.71862656826886        0.67882961766281        0.00048428519845
C            1.04421624558497       -0.76794332337181        0.00063265801639
C            2.22385311747972       -1.43722621810327        0.00082945147327
C            3.47603718562014       -0.77688911618706        0.00096512791682
C            4.62191008132932       -1.59947578207157        0.00163970747835
N            5.54914701034303       -2.27680117989996        0.00112910491249
C            3.71588662899514        0.60588742771738        0.00083568679117
N            2.95303945184632        1.67352994326885        0.00054937648135
C            1.61579466377825        1.76917896275389        0.00038069352450
N            1.18376709160932        3.03449781868191        0.00012731701078
H            1.88587805849772        3.75681555786628        0.00009540955945
H            0.20740750747016        3.28618078307075        0.00008218586200
H            4.77125612114176        0.87599623605516        0.00101812892837
H            2.22739202373794       -2.52001860901630        0.00096083282982
H           -0.68599884394913       -3.15292540091130        0.00064557986435
H           -3.06304587069859       -3.09448664148108        0.00044446579917
