29
 energy: -55.947759429603 gnorm: 0.000842061614 xtb: 6.6.1 (8d0f1dd)
N            3.31942330149227        4.02759795065898       -0.00206508536453
C            2.84309197841154        2.98322174631835       -0.00005493393608
C            2.24477632607649        1.70267682870928       -0.00054409374271
C            0.80332196714950        1.70695530297551       -0.00018653015025
C            0.08423227349606        0.57552172541326        0.00026809310957
C            0.45613856984071       -0.84822837814082        0.00052700757976
C           -0.87313793667802       -1.25075718746973        0.00099799285630
N           -1.52638019997564       -2.41331677951350        0.00151225158837
C           -2.82552668813381       -2.44854771500866        0.00183508984797
N           -3.78145466634537       -1.50330556122303        0.00176286988917
C           -3.74165380476246       -0.20633827999559        0.00146530402445
N           -4.93769158217146        0.41110936336237        0.00162369880105
H           -5.01717826836565        1.41399574903961        0.00136100637227
H           -5.76421451158669       -0.16206408705544        0.00192606386228
C           -2.56347475239713        0.69563337756469        0.00105884786856
C           -2.78605169934090        2.08770848000162        0.00244975246567
N           -3.00923747519027        3.21404501650029       -0.00165297763156
C           -1.32325868540157        0.17094708791898        0.00076457127421
H           -3.24706130439309       -3.44961553063135        0.00233484431244
C            1.71399524360609       -1.49898889685186        0.00038908082372
N            1.69466056007153       -2.83913435796763        0.00086090313181
H            2.55002254748668       -3.37061159964876        0.00086379736090
H            0.80165746564885       -3.30680396819222        0.00124402248007
C            2.91669981701820       -0.77338708809556       -0.00005520354859
C            4.09685513414338       -1.54402677232147        0.00077705841955
N            5.03594552022568       -2.20736229979076       -0.00110757184011
C            3.11093487252628        0.63448911521986       -0.00045608222265
H            4.16194563937602        0.91063138200207       -0.00061920030416
H            0.31231411737283        2.67102185842145       -0.00021978032749
