28
 energy: -50.626679363656 gnorm: 0.000595754333 xtb: 6.6.1 (8d0f1dd)
N           -4.84135351039577       -2.00995962344487        0.01801004632371
C           -3.94332172326366       -1.28922247439369        0.00421862271721
C           -2.82200452750084       -0.44177206314094       -0.00578716149085
C           -3.11113689219225        0.91746536634825       -0.00229612179678
N           -2.41088999332098        2.04218323233633       -0.00339647895396
C           -1.08336860542787        2.14343516956650       -0.00271759136145
N           -0.58170887579439        3.38697140441704       -0.00258870102990
H           -1.20937503653736        4.17190885986523       -0.00534272451497
H            0.41732591893152        3.51044074639873       -0.00136811977352
C           -0.16970060256309        1.07269069306698        0.00008494430382
C           -0.37644836088491       -0.39161296641811       -0.00387897053377
C            1.04380042754786       -0.59147003688784       -0.00324853494382
C            1.21124092478254        0.91837501335138        0.00308158925649
N            2.26085390543870        1.71429885616503        0.01245750251350
C            3.47946418872493        1.21982693639533        0.01567297783105
N            3.97554109214220       -0.01238917750761        0.00474297468216
C            3.39287753529310       -1.19144642340789       -0.01477070799294
N            4.27334965356314       -2.22806234746512       -0.07233712649853
H            5.25020539491227       -2.00480191302575        0.00335041277861
H            3.97501993507273       -3.17630242122661        0.06450325808971
C            1.99698295121365       -1.54360886784346       -0.01212474348277
H            1.75522128867015       -2.60094901441884       -0.02422305399443
H            4.25799125558638        1.97875700843790        0.03191231792925
C           -1.53520199458222       -1.11691995398706       -0.01037408663299
N           -1.53466024930378       -2.47216222930769       -0.04123369259912
H           -0.66710087571319       -2.96981108376249        0.03466779710793
H           -2.40180727096621       -2.97668789801156        0.02975609605282
H           -4.17922415113274        1.13344825600088        0.00317893331351
