30
 energy: -50.859520247638 gnorm: 0.000517114050 xtb: 6.6.1 (8d0f1dd)
N           -5.70734918660755       -1.58596776740034        0.05831943053873
C           -4.73822388938907       -0.96768288149758        0.03990790192104
C           -3.53712253839305       -0.23028997242018        0.01702783421435
C           -2.32691233434087       -1.04913772338050        0.02179990204412
C           -1.10780213742937       -0.51707328320633        0.00760555770943
C           -0.60472033533072        0.87941276422566       -0.01354693433673
C           -1.31855757816333        2.08647206525173       -0.03309402574021
C           -2.68000561345106        2.17694960399943       -0.03113727201815
C           -3.65290674243207        1.13180848957472       -0.00630143500289
H           -4.67643485971674        1.49473159473394       -0.00573170793292
H           -3.10257703916203        3.17287107447949       -0.04902243763849
H           -0.73816708583149        3.00056302084220       -0.05161786272142
C            0.71510555300532        0.43967663175839       -0.01130929656887
C            0.29637607782375       -0.96461821608117        0.00877819461806
C            0.96272367152505       -2.12444234689460        0.02012654907957
C            2.40433713725961       -2.21716403643986        0.00787043339046
N            2.88790929882531       -3.49519968711313        0.05702635064827
H            3.86657551199759       -3.65844714686867       -0.10395602367821
H            2.26363337123097       -4.26008639776843       -0.12794761918959
C            3.30939253521337       -1.18592730826198       -0.00185464218252
C            3.18935267901320        0.23701529822280       -0.00377383700628
N            4.37819754632894        0.91070763873877       -0.05880544510973
H            4.36838157835581        1.91020223361645        0.05955867087485
H            5.23450459423474        0.42876925261908        0.14818914147150
C            2.01848056295480        0.99472704705870       -0.00840421194552
C            2.12366837933746        2.39477101728579        0.00295564661972
N            2.22413273943242        3.54158672278732        0.02436470652071
H            4.34575286059292       -1.51182141989559       -0.01050707082121
H            0.41665476583986       -3.05885738155755        0.03760769480792
H           -2.47294623012371       -2.12140018580868        0.03909293833402
