31
 energy: -53.791871859921 gnorm: 0.000613703149 xtb: 6.6.1 (8d0f1dd)
N           -5.85004291055618       -0.42377292453428        0.07781372891133
C           -4.70067073674214       -0.39294745384810        0.03711917103317
C           -3.29049092171266       -0.35400755438146        0.00759122936133
C           -2.69457912583487       -1.62596368669706        0.04150222898292
C           -1.34898664728332       -1.97567292689952        0.03740198367223
C           -0.34448138006360       -1.04291551054619        0.00668653432989
C           -0.46535970364883        0.48114537670231        0.00131057112473
N           -1.44871734419494        1.32954624772171       -0.01669242835494
C           -2.73161775869468        0.95400531226463       -0.03680085368067
N           -3.59333849281695        2.01448491140006       -0.15046337932636
H           -3.19921521143182        2.92482067858640        0.01098114041512
H           -4.57039955388874        1.87997082495315        0.04611468608551
C            0.93394753303118        0.57638958336935        0.01898583466232
C            1.05041488187298       -0.89812986658135        0.01599696946313
C            2.21070843474304       -1.67588547909496       -0.00940039677152
N            2.09644062902838       -3.03468479123166        0.01003888650788
H            1.19286613486773       -3.43341635975252       -0.17080783012567
H            2.90247739425076       -3.59746858872726       -0.19932203794822
C            3.48288473229591       -1.10243325099452       -0.00841437150252
C            3.87561330025405        0.25158663233932        0.02154611682421
N            5.22338631941318        0.46239618532030        0.00726246275683
H            5.86591316074291       -0.28703089156491        0.18707129119276
H            5.53268682464453        1.40971642097159        0.13568437182543
N            3.21879294459954        1.40956514579260        0.01961245112318
C            1.89610029020112        1.58232433910485        0.00744938646163
N            1.47653867833010        2.86581964248382        0.00815852799325
H            0.49104869370871        3.04686458173238       -0.06807600971100
H            2.15092853050998        3.60366660749093       -0.08370213677890
H            4.30808033231918       -1.80572164589806       -0.02655127593755
H           -1.11366484297581       -3.03397799231991        0.07174962649164
H           -3.40321798766874       -2.44583976786178        0.07810952281890
