35
 energy: -62.272754546929 gnorm: 0.000914523939 xtb: 6.6.1 (8d0f1dd)
N           -6.02880533342669       -0.03717888790887        0.02196857755023
C           -4.88224217425489        0.06887696607064        0.01509707795962
C           -3.47913659995294        0.22159975093720        0.00629500977235
C           -3.05948241276835        1.56385259211847        0.01119982299773
C           -1.72070396953978        2.04355952299032        0.00196295115271
C           -0.61680326261340        1.27226113210314       -0.00646911002206
C           -0.39726452425974       -0.20664638345517       -0.00653354306820
C           -1.36715916528736       -1.21917958650776       -0.01782349166052
C           -0.93749399186477       -2.55411718482290       -0.04806214419561
N           -0.58618615860127       -3.65230122184757       -0.07835913894744
C           -2.76334914535900       -1.01847531413964       -0.00813763083437
N           -3.53729711117375       -2.14338807369813        0.00931978098066
H           -4.53738490776601       -2.07764874570748       -0.04990152575267
H           -3.10638135883574       -3.04814000896199       -0.05931410887164
C            0.98743898605828       -0.00781930059992       -0.00546928413734
C            0.80508058731233        1.46471549376619       -0.01125620130589
C            1.66395660786321        2.51201060124466       -0.02379913646773
C            3.06069946217847        2.39792046478305       -0.03177237967760
C            3.84529690191117        1.25479109323509       -0.01761309686476
N            5.19088046898297        1.46238749135117       -0.03930847901056
H            5.55302576801615        2.39792470352048       -0.03768504771468
H            5.83341654030167        0.69068951381216       -0.00468624534556
C            3.46227910699128       -0.13864370625396        0.01512292826355
C            4.53732469054601       -1.03883286109245        0.04909280450962
N            5.41792961852368       -1.78514895428492        0.07839635741774
C            2.18884690382109       -0.74877478448412        0.01705269290696
N            2.13624779137966       -2.09347767625003        0.05266247908764
H            2.98880295205212       -2.62870750401996        0.06154740111854
H            1.25951739551411       -2.58659897717763        0.03354199902313
H            3.61186315659893        3.32976451478987       -0.05135268832409
H            1.25378880445910        3.51386615288803       -0.03135072572532
H           -1.59929440679125        3.12010701229310        0.00325604356638
N           -4.01812562548502        2.52936621447499        0.00937898309904
H           -3.75356456921303        3.49505834655686        0.06847500259326
H           -4.99288651841769        2.29015008267674        0.06045176282690
