32
 energy: -59.124381514653 gnorm: 0.000896801959 xtb: 6.6.1 (8d0f1dd)
N            6.25582189612607        1.51059455510536       -0.06451084750178
C            5.13993300673946        1.24668346535755       -0.05137247350741
C            3.75595883839199        0.92762457084873       -0.03504558625017
C            2.91312461107519        2.04699106366211       -0.02575466970432
C            1.52143015657017        2.09426985965030       -0.00807016756391
C            0.69993719467533        1.00037425237275        0.01079133726040
C            1.01904380550692       -0.47700462030458        0.00860442191426
C            2.25090827537259       -1.10250610501765       -0.01749108086199
C            2.30088461636287       -2.51294765672732       -0.02774656804711
N            2.31853133559922       -3.66238896408020       -0.03359783902866
C            3.49120790736002       -0.44313760182259       -0.03407384898814
H            4.36306321908894       -1.08731688132599       -0.04887652491926
C           -0.36183997102122       -0.76194701799025        0.01960580395158
C           -0.67587191105346        0.67730856445556        0.02180885598267
C           -1.89166788430222        1.35945509180669        0.05249767851163
N           -1.89528085114777        2.70967790331978        0.10774769807808
H           -2.76468034042322        3.21517512184438        0.11495931682700
H           -1.02975559354511        3.21427982832442        0.11590548617867
C           -3.13282726209774        0.67950595165903        0.01909322602172
C           -4.27564105166083        1.49137890011370        0.03215367429924
N           -5.20475996125995        2.17426039116852        0.04478082260899
C           -3.36961893966306       -0.73156836559921       -0.05693620533578
N           -2.56712728086416       -1.77874113059160       -0.00768724684830
C           -1.23853399557511       -1.85818854285744        0.05535794886247
N           -0.78382309946767       -3.11764282289804        0.16092242304697
H           -1.46452192515337       -3.85768993220101        0.15359809125169
H            0.19723174773823       -3.34357753206590        0.15308015450353
N           -4.66438814902943       -1.09954441246644       -0.18546406734577
H           -5.40666432722385       -0.42199785156638       -0.20568312099236
H           -4.87033962541055       -2.08211654753652       -0.21512539952513
H            1.07903601376694        3.08395548285483       -0.00954396411868
H            3.42477647012517        3.00173298770784       -0.03397094255933
