31
 energy: -59.397550539882 gnorm: 0.000712372409 xtb: 6.6.1 (8d0f1dd)
N           -5.29359459215580       -2.11108174566129       -0.00292645320847
C           -4.37729862981522       -1.41338999147098        0.00154790924857
C           -3.27541601119950       -0.54233698453226       -0.00059903569627
C           -2.01384760256696       -1.14895137830702        0.00341646753251
C           -0.84162775591131       -0.44306455584055        0.00183397886877
C           -0.61653255139524        1.02525550718609       -0.00160786023700
C           -1.52894618870604        2.08158249586710        0.00178965487351
N           -1.05765292553120        3.33947032621056        0.00750364036963
H           -1.70144067996615        4.11048130912504        0.01829109059197
H           -0.06336453394766        3.48686624799273        0.01805300716682
N           -2.85935701578066        1.96693748880267       -0.00214502847342
C           -3.59888274363016        0.86855758393103       -0.00686566720418
N           -4.91558350228946        1.15347518808697       -0.01736392171473
H           -5.61077058841855        0.42576733976974       -0.01997733025866
H           -5.18744493269526        2.12129938534012       -0.02076996261971
C            0.76858202803942        0.83489462602463        0.00322111161437
N            1.81675332464012        1.61250537826696        0.00314626636705
C            3.06479749070416        1.15356143082644        0.00947437738263
N            4.00004642019158        2.13692331217862        0.03827674243907
H            4.98060006206950        1.92940079185207       -0.02948718517967
H            3.68307102959519        3.08781338487919       -0.01729624425459
C            3.54056282816689       -0.20499941029827        0.00542305114790
C            4.95011727176931       -0.32939568389801       -0.00337459292802
N            6.09525404752173       -0.41899518776109       -0.01554559139841
C            2.87207280760230       -1.42319504389453        0.00396961583120
C            1.48475722700040       -1.67750391337506        0.00565976965540
C            1.05176721987949       -3.02442314899635        0.00414638654799
N            0.68655369263716       -4.11161467013092        0.00409677816465
C            0.55345527160304       -0.66776155711080        0.00599094724178
H            3.50958648270695       -2.30044879728244        0.00003423900335
H           -1.98116816041801       -2.23155139798042        0.00784145012600
