29
 energy: -50.343507102431 gnorm: 0.000748572189 xtb: 6.6.1 (8d0f1dd)
N           -1.20732783066941       -3.72680569187532        0.02964412503462
C           -1.34703593060377       -2.58357236450100        0.00303178009769
C           -1.53483879983746       -1.19443922318639       -0.01249438363484
C           -0.39379409623674       -0.36071549798582       -0.01860612842167
C           -0.32137567216399        1.11623914936727       -0.01764613703694
C            1.13807057756481        1.01605132631314       -0.02102101645067
C            0.98832032212948       -0.46066246369533       -0.01997756861634
C            2.00096698048966       -1.43574680178830       -0.04245776176835
C            3.32206134241982       -1.13527421303433       -0.04617597066645
C            3.96529975977809        0.18192384147448       -0.00611839628427
N            5.32252689372380        0.10562674876519        0.01118626090043
H            5.80126711689139       -0.76826287096769        0.13072344087327
H            5.83283220584385        0.96687274118335        0.10087716817369
N            3.52314346128511        1.40305759340960       -0.00437823188405
C            2.21879891450156        1.80836558242485       -0.02925850309408
H            2.12090176252810        2.88879744015549       -0.04146532955274
H            4.02333245613665       -1.95975061807504       -0.07057669349313
H            1.69642471382526       -2.47521956373463       -0.06188004562927
C           -1.27361725180893        2.05832567462057       -0.00785572999853
C           -2.68542412223068        1.72852031109846        0.00037278434944
N           -3.52525974953089        2.79505004999765        0.04513873246550
H           -3.18161888945594        3.73017909316169       -0.07260875946478
H           -4.51264828095853        2.62084476862851       -0.01955455291490
N           -3.29029657971899        0.57762518737468       -0.00315912414308
C           -2.84282011798337       -0.69477530478717       -0.01225698788402
N           -3.87801470313431       -1.58225279035860       -0.05944804624779
H           -3.70272530554053       -2.56292895742978        0.07281043728576
H           -4.80447171082615       -1.22058650754691        0.07677181116284
H           -1.01113753401791        3.10809603789141       -0.00243546355737
