27
 energy: -46.905317662341 gnorm: 0.000420690862 xtb: 6.6.1 (8d0f1dd)
N            5.15637331350470        1.18778255304699       -0.00128438387439
C            4.16564948161082        0.60079038408127       -0.00092183646084
C            2.93853596482018       -0.08415433590024       -0.00020458323967
C            1.78803885409006        0.71281485387548       -0.00036806648544
N            1.85133861513505        2.05556073245893       -0.00109129374314
H            0.98729470526301        2.57326998695664       -0.00123778664916
H            2.73703727579740        2.53289554118427       -0.00160149756243
C            0.48880839173523        0.14764516189209        0.00023080683999
C            0.02511751304013       -1.24683176529777        0.00109400436244
C            0.68543009567936       -2.41792496739068        0.00157486178029
C            2.11170965894280       -2.51003281819675        0.00129361001367
C            3.03798983625520       -1.51343386075599        0.00054821037980
H            4.07135244130224       -1.84629297943587        0.00050308715776
H            2.50241197988125       -3.51923847971488        0.00173634636301
H            0.13071350548236       -3.34694404899412        0.00218566977345
C           -1.35557664742443       -0.75882012742247        0.00116513210228
C           -0.80792026474644        0.63646848127453        0.00025680417833
N           -1.38562664007296        1.83871634766235       -0.00040506110589
C           -2.68124299662709        1.95527636879139       -0.00019092999125
N           -3.70113630589665        1.07800048677676        0.00093123430637
C           -3.71997675685985       -0.22528282784743        0.00182178343571
N           -4.96049337335484       -0.76649723219126        0.00248927327332
H           -5.10828470367283       -1.75865176583686        0.00507807726853
H           -5.74702259458178       -0.14090080653526        0.00344535879679
C           -2.62024592526862       -1.18708538267981        0.00184506002945
H           -2.87142126623781       -2.24035705896761        0.00251867167636
H           -3.03541447549643        2.98301948906641       -0.00091169652522
