30
 energy: -54.866327432056 gnorm: 0.000630301042 xtb: 6.6.1 (8d0f1dd)
N            6.02320855428962        1.09518158705140        0.00484277624579
C            4.90581335945015        0.82369779738660        0.00611666034265
C            3.53742475502315        0.47732516232412        0.00432239235842
C            2.67225061397593        1.60041395060940        0.00142194969453
N            1.36020413535941        1.68637027697145        0.00017496416109
C            0.63338183036596        0.58603616664276        0.00165904317490
C            0.97895441204228       -0.90321238539141        0.00464073434839
N            2.08406875592533       -1.56291394282369        0.00682970680025
C            3.27559970433378       -0.91703588686556        0.00666412520620
N            4.32185095553131       -1.77551437895452        0.00902309248907
H            5.27111491303632       -1.44671293751714        0.01005797541782
H            4.11928603607242       -2.75886063510786        0.01131777611056
C           -0.41762909956341       -1.19253265514801        0.00429455973330
C           -0.71510148693190        0.25579012244213        0.00147871744868
C           -1.92449729973420        0.97226395786955       -0.00018182918147
N           -1.82540341606614        2.31207904548725       -0.00244748474216
H           -2.64264400915790        2.89900097453014       -0.00360540470121
H           -0.90362851681465        2.71847307881744       -0.00271963383315
C           -3.18293800910600        0.33965935749784        0.00055915788264
C           -4.28224237219038        1.21050524655477       -0.00075975902423
N           -5.17087285037917        1.94617476174021       -0.00197721795184
C           -3.48910011762034       -1.06922267917003        0.00264858781570
N           -4.81795140677797       -1.34584143862694        0.00213183542972
H           -5.49754140855188       -0.60448644641115        0.00148051086281
H           -5.13665754686183       -2.29774089113202        0.00442800389887
C           -2.64629814920846       -2.18333048699231        0.00493258173924
C           -1.25284030584608       -2.27001445042449        0.00579020236997
H           -0.81620278113877       -3.25943438132019        0.00779625673449
H           -3.17100776898877       -3.13115968179191        0.00627652523592
H            3.17145757633362        2.56415402385364        0.00012983463442
