33
 energy: -53.216839562190 gnorm: 0.000593672365 xtb: 6.6.1 (8d0f1dd)
N           -1.22333710639010       -3.63576177707247        0.19004903804228
C           -1.39510218238907       -2.49821816562579        0.08455944933846
C           -1.61059213613634       -1.11839924063049       -0.00141754419258
C           -0.48970024745035       -0.26142746866387       -0.01789894977157
C           -0.47897126856720        1.23465868826292       -0.01087601132295
C            0.96497752249953        1.19561455720644        0.00939596952133
C            0.90089552510996       -0.28342555800664       -0.01022377664109
C            1.98872213633172       -1.19834575277045       -0.03766344929462
N            1.72373131310896       -2.52540737912628       -0.14394917795885
H            0.78529762883848       -2.87173974187168       -0.03833981901586
H            2.47610677100564       -3.18505231220735       -0.05078346189223
C            3.31049607516308       -0.79684640902860       -0.00967295321153
C            3.91696107249442        0.48844456272241        0.04319318624623
N            5.29284010012039        0.44862054031526        0.13022803010107
H            5.76170675492305       -0.39812912269347       -0.14268748885408
H            5.79573173635882        1.30221870999990       -0.04393190523116
C            3.34579342502629        1.74959523799198        0.06559620561686
C            1.97969167621530        2.08773894320245        0.04667729192260
H            1.73785013099417        3.14376803618213        0.06169844562095
H            4.04062710353516        2.57960905794362        0.10374303470016
H            4.02674346424536       -1.61295213353074       -0.03068541895744
C           -1.44477888112785        2.16502309819637       -0.02583815901554
C           -2.84724453714847        1.87523401393184       -0.05309105317466
N           -3.66721676121020        2.98115858464145       -0.14383646168363
H           -3.28156856751385        3.86866321847188        0.12956777754264
H           -4.64783253533911        2.85693940681657        0.04358522477871
C           -3.44480200858767        0.63572291056005       -0.05100793385477
C           -2.94677478181774       -0.68928936565365       -0.03451455722667
N           -3.91986821731251       -1.66858494109095       -0.10965577630608
H           -4.85688670372057       -1.42075587213030        0.15772735030184
H           -3.64290300044197       -2.61452363685737        0.09778221034159
H           -4.53094544092072        0.67185289224783       -0.07732565608232
H           -1.16719162979666        3.21248435186696       -0.02481429988707
