28
 energy: -50.621691588151 gnorm: 0.000908522317 xtb: 6.6.1 (8d0f1dd)
N            5.45044262414612        0.64635658919361        0.01989838562295
C            4.30673167787409        0.53063609360835       -0.00018685000708
C            2.90230203140848        0.38633794203223       -0.01136489847554
C            2.22017240521383        1.61693744937375       -0.00725017617266
N            0.92596910925274        1.90423886417396       -0.00454714626297
C            0.05182769436908        0.93314390556475       -0.00319450399615
C            0.17395825176224       -0.60723153705308        0.00004331535453
N            1.18305183401041       -1.42934753191747       -0.00261558644552
C            2.44016156180006       -0.96616068635788       -0.01682770737571
N            3.37443903796434       -1.95521529364954       -0.07130384801334
H            3.05319445099246       -2.89969138139943        0.04199602073165
H            4.34912572555064       -1.74520041720468        0.05340775403234
C           -1.22287571759246       -0.68775796898545        0.01062568028707
C           -1.33526848317516        0.79198539499599        0.00638174528896
C           -2.46634497915196        1.60852418251169        0.00575737664730
N           -2.28960033118163        2.94230177830885        0.00267698009762
H           -3.07125607839211        3.57298940514823       -0.00284576254858
H           -1.34961702566135        3.30156774336638       -0.00121209620052
C           -3.76480244400144        1.05438064495679        0.00922665914994
C           -4.14884824885220       -0.27858848427327        0.01262578533365
N           -3.54011509755549       -1.45153393527124        0.00844386043563
C           -2.21659785922730       -1.66785330177410        0.00599162658545
N           -1.84940824659924       -2.96214184881463        0.00297539615085
H           -2.56114432546263       -3.67085885666648       -0.02034751841877
H           -0.87250795101267       -3.19669313977612       -0.01912567346506
H           -5.22939359057470       -0.42027223819539        0.01770997229575
H           -4.57624513552989        1.77147878867828        0.01030184265896
H            2.85440667182581        2.49796354762592       -0.00389671849077
