23
 energy: -44.782318271674 gnorm: 0.000523317469 xtb: 6.6.1 (8d0f1dd)
N           -5.95492290476993       -0.67444532286185       -0.07209173545888
C           -4.82356839382599       -0.49166551956131       -0.05857185192204
C           -3.42390691745753       -0.26230994063099       -0.01624821222246
C           -2.64105984435984       -1.42922137284817       -0.01645400405771
N           -1.32000854848416       -1.57133925079814       -0.05812497296127
C           -0.52201385924082       -0.56072975325580        0.05409326823289
C           -0.77469642998340        0.96040077829034        0.04694914989267
N           -1.86392299753554        1.66210256805486       -0.07115763011686
C           -3.05896897308794        1.10590911912007       -0.03140725171307
H           -3.87442449323730        1.82014328609554       -0.06333997628690
C            0.60459070875466        1.16637105451380       -0.06291378490319
C            0.86573459598037       -0.31001774919330       -0.04804033667074
C            2.03286483494454       -1.00622541484011        0.11994449908231
C            3.30901259044305       -0.41513426402504        0.02091732434660
C            4.42656403397456       -1.27595538186060        0.06930836648396
N            5.33678390397005       -1.97307755289473        0.11897766523223
C            3.56519477399370        0.94385988774280       -0.26298352515790
N            2.82877735471526        1.99580166907304       -0.03125839568080
C            1.55119256914289        2.14835069724262        0.19025415780432
H            1.24949960064746        3.11384417153035        0.57872094555248
H            4.55341998971082        1.18121144153842       -0.64877449024799
H            1.98216343706761       -2.07730652556484        0.27284949214259
H           -3.17480612886258       -2.37323231486845       -0.02749100627046
