31
 energy: -54.588182634089 gnorm: 0.000473635813 xtb: 6.6.1 (8d0f1dd)
N            4.45400166982807        2.25755872257565        0.00428839379804
C            3.68209317748134        1.39901841703109        0.00044778080370
C            2.73980345922938        0.36041449439633       -0.00370631239708
C            1.37439567227613        0.79812379641002       -0.00542340627629
N            1.15916525418245        2.12721065284547       -0.00566679684888
H            0.22677917412335        2.50547330257033       -0.00503309617550
H            1.93831848054460        2.76441846482402       -0.00502063232893
C            0.30557474998239       -0.09032477279225       -0.00655814012387
C            0.29123008068396       -1.57635318243823       -0.01209352260405
C           -1.12114863330063       -1.57740468327194       -0.01209586088554
C           -1.10668769082530       -0.07005127476371       -0.00875336702631
C           -2.18406895947057        0.79333242434743       -0.01034339548077
C           -1.97524198284938        2.18057453516525        0.00408603222662
N           -1.81630034681452        3.32213261383430        0.02601804004421
C           -3.55321000461925        0.35030659096137       -0.02002170591449
N           -4.51253105566560        1.31871741559318       -0.09155272480990
H           -4.28416390270513        2.28758361392717        0.04516154949165
H           -5.46589453517722        1.01827025794144        0.00853537519451
N           -4.06260500911463       -0.86704016317029        0.00729139626756
C           -3.50741543739084       -2.05930824161511        0.01824949819857
C           -2.16515202988302       -2.45821474769824        0.00143844913087
H           -1.95655405931638       -3.52021934345398        0.00638020731967
H           -4.25014238578825       -2.85213758696277        0.04582310908013
C            1.30005281850065       -2.50653467547804       -0.01366698688096
C            2.64887921469745       -2.20738890261477       -0.01017022145679
C            3.28895473346517       -0.95086542017226       -0.00500177711901
N            4.64511820582809       -1.01137919549824       -0.00090454470514
H            5.11220015936480       -1.89967055191067       -0.00250788289092
H            5.19676893072582       -0.17047254647882        0.00204246482573
H            3.32769566395532       -3.05124145220840       -0.01125052810530
H            1.02205881515184       -3.55298459969534       -0.01804003955156
