25
 energy: -47.443998310453 gnorm: 0.000444748349 xtb: 6.6.1 (8d0f1dd)
N           -5.05182784046554        0.00949212049636        0.01569214532330
C           -3.90043145008541        0.00911729904812        0.02150459978815
C           -2.49266178536602        0.00311430716649        0.02418006415222
C           -1.88632192172542        1.31638547473242        0.05094147913258
N           -0.61156692021660        1.65436321360778        0.09242662725420
C            0.35235601295341        0.75852402963988        0.04883297380086
C            0.33152640793828       -0.75700977695642        0.02912898572122
N           -0.60137488259465       -1.63647692294316        0.06485952545099
C           -1.91393567760575       -1.27982553790945        0.01943128336707
N           -2.71679323461087       -2.36354564255451       -0.02273456024093
H           -3.71815401392254       -2.28026918619186       -0.04074256377216
H           -2.27758055362569       -3.26674128670104       -0.00088297343697
C            1.76260836495905       -0.76229820950721        0.07556887224655
C            1.73868417301068        0.74685037311680        0.13495397666104
C            2.82244149977737        1.55968564237026       -0.23322752094714
N            4.05818847778170        1.17630286108764       -0.21303103379539
C            4.51512805243999       -0.01433111661602        0.22635055580731
N            4.09303549597974       -1.21915459522095        0.06456689523236
C            2.81051170954411       -1.58212469814600       -0.17835393424972
H            2.67042501081542       -2.62151355793803       -0.44699758488535
H            5.49382949347424        0.06645902170195        0.69802953743351
H            2.63123449960423        2.55894879800247       -0.61263906194520
N           -2.72971468258412        2.37404079932937        0.04017309277137
H           -3.72690704890065        2.25833627706400        0.07103829355303
H           -2.32140561187407        3.28953928572122        0.10117264277659
