30
 energy: -50.868106728363 gnorm: 0.000930314954 xtb: 6.6.1 (8d0f1dd)
N           -3.44010805071084       -3.88137569597083        0.03639799123213
C           -2.87166016832936       -2.88231616366034        0.02744043729822
C           -2.15376948459399       -1.67010793421060        0.01476654094941
C           -0.72651200528460       -1.80002083868807        0.01586832908515
C            0.10931091071261       -0.74847447014079        0.01146762426415
C           -0.10148675159276        0.71934121066198        0.00968024345052
C           -1.27752534402361        1.46564372913343       -0.00824724129464
N           -1.21022044411438        2.81322027557251       -0.01859382921438
H           -0.31869896493603        3.27246358832568       -0.03347991679893
H           -2.05233868008738        3.36384248698971       -0.04375853101611
C           -2.56478634527089        0.85298559477394       -0.01367444480456
C           -3.65585646499908        1.73965961145231       -0.03620555543825
N           -4.52720971646484        2.49224605269827       -0.05510073217489
C           -2.90803245416545       -0.51096774262784        0.00086739632339
H           -3.98208945630012       -0.67846436174459       -0.00113258147818
C            1.28829683012031        0.94362218704091        0.01857451562393
C            1.54286852647966       -0.51785425203541        0.01528670216648
C            2.66644116548698       -1.25692831537042        0.00960990034106
C            3.99096501388098       -0.71858182045820        0.00623921630042
N            5.00274595261194       -1.64265644110181        0.04142874929398
H            4.79288940819281       -2.60168652549026       -0.17080049644994
H            5.94543144027378       -1.33813745891617       -0.12768005947811
C            4.34092417766274        0.62374128734537        0.02156023041325
C            3.57721684513796        1.79990245068814        0.04161339009677
C            2.20840164769231        1.97975819920164        0.03738465341936
H            1.84870686389255        3.00191206366625        0.05181019821723
H            4.16688093306938        2.70822955456973        0.05679114099451
H            5.41222449822165        0.79684809144427        0.02158735814340
H            2.58283858441807       -2.33740943207019        0.00628117158587
H           -0.32971398408024       -2.80742778187857        0.02170076944871
