28
 energy: -49.830385185578 gnorm: 0.000872371901 xtb: 6.6.1 (8d0f1dd)
N           -5.02040319248954       -0.51231281949576        0.01576475953836
C           -3.65904342857701       -0.41774622526065       -0.00651195465198
N           -3.08831754657997       -1.59609305010434       -0.02449083977010
C           -1.76069392875211       -1.86304988933708       -0.05742985279888
C           -0.76007116364185       -0.96198826907806       -0.00568762877487
C           -0.77559867999597        0.51817533757442        0.02127657239714
C            0.59849498204086        0.59880664017583        0.01108184025879
N            1.53278338537346        1.55888170332104        0.01794499663307
C            2.79657957481226        1.20696733521053        0.00293001175198
N            3.69663870015557        2.23133842991458       -0.05661756107815
H            4.65515210790937        2.00662872360385        0.14124935884645
H            3.36061441772182        3.15545084627260        0.14728822912159
N            3.41489125780428       -0.00228424697260        0.00251707773397
C            2.94973121225045       -1.21377670342560       -0.00247872007690
N            3.86956592296843       -2.20321915550136        0.01919128708157
H            4.84452906541518       -1.97473883752232       -0.04186436375937
H            3.55149863611443       -3.15255078664227       -0.04864386098849
N            1.66391101227055       -1.73226691568131       -0.00864134026990
C            0.68918079481652       -0.90544019522330       -0.00623087361269
C           -1.89011655730189        1.40477807464499       -0.01839791563753
N           -1.59149125989835        2.72772497959659        0.00369054209817
H           -2.29802046407951        3.41550152033672       -0.18850761844168
H           -0.62206182843570        2.98075180842050       -0.08942464296156
C           -3.18025537725993        0.94218900970685       -0.05228657831867
H           -3.96279530878586        1.69144587425167       -0.08993382671887
H           -1.53952326669091       -2.92350315954031       -0.10742677003315
H           -5.40196648171718       -1.43351703898603        0.14509048450185
H           -5.59352333274737        0.28479703324084        0.22434516472983
