24
 energy: -42.937245477758 gnorm: 0.000228505615 xtb: 6.6.1 (8d0f1dd)
N           -1.29993251686691       -2.93379426443779       -0.00257231647175
C           -1.51346791579237       -1.61003628969196       -0.00181195768921
N           -2.80349758609335       -1.22878635001756       -0.00121818264580
C           -3.27125458515185        0.00131176808055       -0.00054116833883
N           -2.80261876312163        1.23107455309100       -0.00065442097203
C           -1.51231683744752        1.61140550262386       -0.00106093118376
N           -1.29784151467483        2.93501181571053       -0.00119779512233
H           -0.35417268524169        3.28307455414365       -0.00155544145804
H           -2.08607025935234        3.55868336889133       -0.00126156004770
C           -0.42309123470198        0.73737315968882       -0.00125123036790
C           -0.42361853050823       -0.73678063545682       -0.00160241905207
C            0.97924253705257       -0.77141034765601       -0.00233725238456
N            1.92136208314523       -1.66824385726455       -0.00314161124065
C            3.19736110884033       -1.27763695250429       -0.00385107877616
C            3.76527900447461       -0.00120457399486       -0.00390484014971
C            3.19827667541230        1.27563374910448       -0.00324729851174
N            1.92255732090399        1.66715577780407       -0.00235088528689
C            0.97979523016524        0.77099837269928       -0.00197109564107
H            3.88988933939757        2.11151127373578       -0.00351236963349
H            4.84987992619919       -0.00159347285727       -0.00460264973986
H            3.88837456588118       -2.11400965210295       -0.00451127204544
H           -4.36325948952288        0.00170154253122        0.00012408982640
H           -0.35651036647858       -3.28252519012991       -0.00308626262977
H           -2.08860287031805       -3.55690718889059       -0.00290345493764
