33
 energy: -62.056712210859 gnorm: 0.000651666450 xtb: 6.6.1 (8d0f1dd)
N           -1.10062642338315       -4.15153390183694       -0.03668257068014
C           -1.30066503042988       -3.01579352751646       -0.04541192703509
C           -1.54488074588247       -1.63647176648545       -0.04062323233511
C           -0.47435780550747       -0.75827312135709       -0.00176085974407
C           -0.47386854852086        0.75868973359353       -0.00972802419886
C            0.92378969264107        0.74978104708279       -0.00300445455111
C            0.92325196102876       -0.75025705089518        0.01077933070957
C            2.01958996920414       -1.61717857746236        0.10724810356515
N            1.85244150528338       -2.94319096619227        0.28087435050348
H            2.68005051968529       -3.51288941562028        0.29687775999829
H            0.94732954680643       -3.37987462802450        0.23631647101319
N            3.29478643451249       -1.23599743123281        0.04401289246993
C            3.78007772933167       -0.00223422857576       -0.07478257589453
N            5.11457399692799       -0.00499802284271       -0.30366520946690
H            5.60652853408103        0.86924236870380       -0.32115774203303
H            5.60567746941441       -0.87992628577774       -0.30422423011321
N            3.29573493724785        1.23383472066531        0.02066146621756
C            2.02094099827122        1.61729809980003        0.07848155539586
N            1.85515926830457        2.94644586825826        0.22600612467679
H            2.68318033302359        3.51563328874076        0.23659415433552
H            0.94978035863919        3.38257217624377        0.18330439318759
C           -1.54441556551249        1.63749330382420       -0.02185489731074
C           -1.30078649099609        3.01669783478891       -0.04582998143402
N           -1.10288771983378        4.15259648639574       -0.07585826582282
C           -2.90946459277957        1.21338346092370       -0.00663897877924
N           -3.42580114240738        0.00083542455818       -0.04066384933900
C           -2.90920691765023       -1.21178538319343       -0.07348994888578
N           -3.85740848688258       -2.18655728237967       -0.17874447243716
H           -3.61169636984790       -3.15346259507634       -0.05942740028146
H           -4.81715365205459       -1.90687948597914       -0.08348402815862
N           -3.85855360975532        2.18901383081281        0.08317973296574
H           -3.61076182216245        3.15495137948155       -0.03989085668587
H           -4.81688409819769        1.90932192887312       -0.02519990555204
