31
 energy: -60.180051787157 gnorm: 0.000619864505 xtb: 6.6.1 (8d0f1dd)
N           -5.62957725559338       -1.60455072951762        0.00145361786898
C           -4.54486244524359       -1.22885133323526        0.00258067984440
C           -3.20778114569795       -0.75895714716806        0.00128451312334
C           -2.26187305508001       -1.81405479893366        0.00081609920423
C           -0.88169820041439       -1.78839289409719        0.00029488055300
C           -0.21746464493300       -3.03175872672573        0.00036464100064
N            0.36214585212172       -4.02442061889743       -0.00068203349386
C           -0.10252021195383       -0.61407166087694        0.00015325536015
C           -0.58881151185641        0.78720127228219        0.00022477107022
C            0.79162095100827        1.24199944744301       -0.00019063835831
C            1.22283120051226       -0.17536252162689       -0.00020002968310
C            2.54796164974357       -0.67775170029248        0.00021794594502
N            2.77853513083475       -1.99588777583681        0.00089419074076
H            2.02959391747869       -2.67157929297144        0.00072852083384
H            3.72955013752704       -2.33167649562038        0.00122697804924
C            3.64546245307785        0.21428183511962        0.00002785899835
C            4.92081873997811       -0.38521933791493        0.00167922033109
N            5.95367888350157       -0.89088110856620       -0.00039471743457
C            3.68036071938002        1.64081855717395       -0.00117255003622
N            2.79502296235480        2.58598222446145       -0.00104976765661
C            1.45265414947640        2.41895842758108       -0.00004427765624
H            0.90059107868404        3.35227457490435        0.00066171852566
H            4.69633202937921        2.03383127097134       -0.00228456665058
C           -1.81629854286341        1.35864505000548        0.00067845801276
C           -1.89310613161822        2.77388633308726        0.00060778178234
N           -1.98510188469138        3.91694827132878        0.00074901146216
C           -3.07397178371309        0.63511721294156        0.00129653752345
N           -4.19132664860181        1.39568629113271        0.00199505099610
H           -4.12740373989154        2.39962783068443        0.00196795893447
H           -5.09981694543978        0.96247398979357        0.00247076548463
H           -2.71170788436653       -2.80074842702977        0.00106327892471
