31
 energy: -55.383855419940 gnorm: 0.000433933863 xtb: 6.6.1 (8d0f1dd)
N           -5.34669197191718       -1.30958855065063       -0.02513904497677
C           -4.33897201663896       -0.75210011715772       -0.01548415043051
C           -3.11831682998800       -0.05440802269825       -0.00421194149813
C           -1.96004467232035       -0.88028755786258        0.00213338739601
C           -0.69408434033621       -0.41221223167460        0.00970013269403
C           -0.14078307256554        0.97118329552432        0.01318691483087
C           -0.80378514505681        2.19072058649775        0.01389658771537
C           -2.16583172902384        2.33787817625890        0.00830034237430
C           -3.20547312193841        1.35648004241382       -0.00116594887983
N           -4.45482416736362        1.87520681818320       -0.00822951733603
H           -5.25696229218707        1.26661011305192       -0.01518356325514
H           -4.59724296845554        2.86940520889017       -0.00625925399857
H           -2.53555664596869        3.35611584096348        0.01014413246572
H           -0.19954770008719        3.08950328469490        0.01940589642732
C            1.16512166707516        0.47395161873340        0.01725918689256
C            0.64746162735960       -0.92535674596800        0.01355907890202
C            1.30297658492769       -2.11818785422837        0.00643095454654
C            0.55405458240141       -3.31859155979439       -0.00301529505506
N           -0.04611565203852       -4.29577386090582       -0.01159533022822
C            2.72715559414306       -2.23843237186457        0.00652640611282
C            3.68251311741499       -1.26395383630660        0.01157396239426
C            3.62997359692422        0.15908812327140        0.01637072195145
N            4.84146783110057        0.79402417780843        0.07205352825483
H            4.87566501099803        1.79149852616731       -0.05454629822181
H            5.68167512514788        0.27415045438269       -0.10866101469298
C            2.47429574594774        0.95934165920780        0.01356925315609
C            2.63272818742688        2.36078673455410       -0.00495131832549
N            2.76682758738093        3.50187955752511       -0.03274036794621
H            4.70151783632062       -1.63780122432227        0.01378715348021
H            3.08934352426155       -3.25909245427856        0.00122992592235
H           -2.13295279844413       -1.94988776691637       -0.00013891127170
