26
 energy: -43.164997870912 gnorm: 0.000621724158 xtb: 6.6.1 (8d0f1dd)
N           -0.33768532353168       -3.94818050736923       -0.01009809770261
C           -0.71137891026436       -2.86271557786675       -0.00177178522180
C           -1.17633200792735       -1.52959360813457        0.00763360602499
C           -0.21754600307880       -0.49535681212767        0.00664771192344
C           -0.44053719296219        0.96716913133330        0.01794870701991
C            1.00972992797752        1.15630136866712        0.01121653951669
C            1.16243536787661       -0.32368543255779       -0.00094663278337
C            2.34271256406317       -1.08686953235240       -0.01101383202186
N            3.56354187640753       -0.65472837241232       -0.01730685660947
C            3.96878668773529        0.64830247283268       -0.01247418672575
C            3.33611988761412        1.85277006222428        0.00517240151246
C            1.92386179145535        2.13410394027606        0.01722134826284
H            1.62386291931896        3.17391825614227        0.03042515753745
H            3.97700199916815        2.72513322938500        0.00904871267539
H            5.05588795518706        0.68962364681307       -0.02327464201610
H            2.24374103088870       -2.17027332783650       -0.01520843618886
C           -1.54158191169341        1.73085695848773        0.02304321440941
C           -2.88628822290474        1.21413395921415        0.02076806114780
N           -3.86850540656776        2.16561842468864        0.07266873285274
H           -4.82378713071072        1.89007327244653       -0.07548218762067
H           -3.63535650620188        3.12321900237515       -0.12193534715293
C           -3.27059464881239       -0.11290958256189        0.01821394143198
C           -2.54068978277750       -1.31705257532052        0.01633160431093
H           -3.15164616505061       -2.21196279777638        0.01622172172054
H           -4.34578906201153       -0.25935679680028        0.01988141686354
H           -1.43994032549765        2.80962788303077        0.02999362333329
