25
 energy: -43.451569533072 gnorm: 0.000441931120 xtb: 6.6.1 (8d0f1dd)
N           -4.40866107876079       -2.10823065897387       -0.00236795383149
C           -3.48995735511317       -1.41343563307816       -0.00169199909506
C           -2.37958237746247       -0.55446206425057       -0.00132721343565
C           -1.12624635950484       -1.16755311447401       -0.00163635589295
C            0.05799335898342       -0.47632392386396       -0.00114464640407
C            0.29420940737986        0.99022209285762       -0.00017942829727
C           -0.58952864340276        2.02542109045889        0.00034191639634
N           -1.92098428406507        1.94843674398510        0.00011300715065
C           -2.68177967978828        0.86752383004863       -0.00057516100113
N           -3.99379333636876        1.17357328649994       -0.00057578820033
H           -4.70479052169587        0.46148215169618       -0.00104624422144
H           -4.24371981245642        2.14783995079095       -0.00006149261339
H           -0.22436165808902        3.04839472114281        0.00103187440328
C            1.70682494187810        0.75781830877689       -0.00010121977706
C            1.45166194607854       -0.71445603369913       -0.00115617398691
C            2.35077144486080       -1.75333199453165       -0.00187633781796
C            3.73493759390122       -1.56598674885593       -0.00161732469053
N            4.47771372033861       -0.46791295792122       -0.00043743128414
C            4.14314169635196        0.79575586372256        0.00062660002368
C            2.88161514263356        1.44054077061811        0.00071215410441
H            2.87338400735965        2.52310568258000        0.00152202311186
H            5.00899953326486        1.45356187778301        0.00156271792953
H            4.34433089875504       -2.46568366438869       -0.00240703531618
H            1.97982463638962       -2.77077353588789       -0.00269655083869
H           -1.10815853546782       -2.25130374073553       -0.00228182641563
