31
 energy: -55.384743663299 gnorm: 0.000552954338 xtb: 6.6.1 (8d0f1dd)
N           -5.01527839479096       -2.33856335962190        0.00337040667762
C           -4.23871943122596       -1.48836892423761        0.00235301670617
C           -3.30691575194713       -0.43536036773966        0.00257656715017
C           -1.93732787043422       -0.85126015533754        0.00183719133014
C           -0.89325460375924       -0.00512020341629        0.00149063481308
C           -0.79869785782878        1.47580022139204        0.00176231618007
C           -1.82055592036906        2.42270251451402        0.00249022594888
C           -3.15436761706674        2.13148018047017        0.00309114303168
C           -3.83535110509441        0.86557015276232        0.00313631909628
N           -5.18572623700963        0.97228978216961        0.00376578524079
H           -5.63110384537135        1.87206293644946        0.00416026999674
H           -5.75850152679379        0.14452130754235        0.00385084361257
H           -3.82996094886434        2.97860446833192        0.00358278866274
H           -1.53539090897348        3.46755689019417        0.00256385235279
C            0.59861562741101        1.41798247766729        0.00104315793525
C            0.55542170213092       -0.06338006599616        0.00070615424476
C            1.51945815917971       -1.01885085464733       -0.00000738760259
C            1.11314964672144       -2.37413073837278       -0.00003720865486
N            0.79688573308791       -3.47755174680748       -0.00020916122385
C            2.94320523676420       -0.75278698694229       -0.00061382720405
N            3.74548353295637       -1.84885688738082       -0.00103174564129
H            3.34795661394430       -2.77180520151527       -0.00140207142604
H            4.74535601207534       -1.74414973203121       -0.00172173045356
C            3.53572624269096        0.51393841542428       -0.00068701340625
C            4.95026739135766        0.50646967281657       -0.00142373687328
N            6.09944588193934        0.50325451264566       -0.00225234267806
C            3.00180068125605        1.83661753074930       -0.00013788036261
C            1.70250387508770        2.26684163702874        0.00064100827341
H            1.51974140274585        3.33315672046375        0.00094228799731
H            3.76707301023601        2.60351343900832       -0.00041126939329
H           -1.76489760845569       -1.92047050448372        0.00146364036926
