28
 energy: -45.808852939566 gnorm: 0.000634818354 xtb: 6.6.1 (8d0f1dd)
N           -4.85823321151802       -0.03613618835139       -0.06618646331104
C           -3.49507970611297        0.08759356957169       -0.02609869696092
C           -3.02084105917394        1.40508050622557       -0.03519546629575
C           -1.70827975884589        1.88364397585230       -0.03309279771002
C           -0.59934426551392        1.09020655030146       -0.02689201977854
C           -0.46561377179109       -0.38417107249157       -0.02862788558915
C           -1.44166754928414       -1.40227940756630       -0.02422152906704
N           -0.97150241318485       -2.67088803033026       -0.04165313082246
H            0.02422305288059       -2.79624359493423        0.02851906520339
H           -1.58527680238225       -3.45885691359010        0.06051448692060
C           -2.80373360008036       -1.14797698469665       -0.01438242815636
H           -3.44276856876500       -2.02479231498040       -0.00556544486592
C            0.91643686599743       -0.31505893025525       -0.00759916257410
N            1.92640590535117       -1.16551515796917       -0.00509773338367
C            3.17118755776450       -0.71443385788178        0.02331499604036
N            4.12880186923442       -1.70568864629101        0.10340782484281
H            3.79743758068941       -2.63233503228163       -0.10911877312734
H            5.05727640179227       -1.48753961221074       -0.21616605517222
C            3.65601717913196        0.62929633103366        0.03878206670587
C            3.01246954670931        1.84256571746358        0.03091882439656
N            1.69604211583936        2.16073045584597        0.00802597591752
C            0.82124596028119        1.21851891825143       -0.00568791524631
H            3.64131828420014        2.72665183142182        0.04386744973425
H            4.73969371477076        0.69098688710087        0.06270816053696
H           -1.57031188683920        2.95687493819368       -0.03048816356093
H           -3.79630099702096        2.16201445438675       -0.04234449498993
H           -5.28109123407923       -0.93083118940298        0.10605296339112
H           -5.42831623405072        0.77846471508467        0.07678535562233
