27
 energy: -46.892677707209 gnorm: 0.000850304685 xtb: 6.6.1 (8d0f1dd)
N           -2.56135808830475       -3.49881422850023       -0.00618378591134
C           -2.45475731107802       -2.35560106105653       -0.00279012913434
C           -2.31397100976296       -0.95114743446472       -0.00028889269401
C           -1.06721280566318       -0.38355128097078        0.00862316075947
C           -0.71593914108818        1.10957176939564        0.00579929287365
N           -1.42758692438606        2.20004986563096        0.00322247540973
C           -2.75776317805035        2.14626699233146        0.00120572518323
N           -3.63584394190167        1.15688330397332       -0.00711590504583
C           -3.49127849023598       -0.14254842705662       -0.00967990649951
H           -4.43619851867265       -0.68107949254877       -0.02086472807083
H           -3.22496159827709        3.12784400891208        0.00400620393702
C            0.63961881287254        0.76639316806021        0.00632331002061
C            0.31328496635430       -0.67163116411756        0.01024827181459
C            1.14159678610017       -1.77613852550501        0.01368891284390
C            2.51728566805275       -1.71406432920306        0.01095989857175
C            3.38086145745330       -0.58474659663027        0.00454021918602
N            4.70412788795752       -0.89917815333423        0.01238858191230
H            5.00053033932722       -1.85686465487127       -0.03299963029861
H            5.40364408244091       -0.18115818436873       -0.03749408791589
C            3.09501753026496        0.78579469928343        0.00221390152313
C            1.86233361464959        1.44793002324776        0.00438876225717
N            1.80938261393738        2.79376102979274        0.00180391036980
H            0.90332726180144        3.23242535379702        0.00369356455680
H            2.64062577278421        3.35678298655609        0.00451782359356
H            3.96511454824056        1.43365667639034       -0.00163993489852
H            3.03626648250907       -2.66464666469704        0.01358035566370
H            0.67856485837504       -2.75489524204620        0.01788804059251
