33
 energy: -58.029105353394 gnorm: 0.000587140279 xtb: 6.6.1 (8d0f1dd)
N           -5.26087203964716       -1.53548858064868        0.11522775049504
C           -4.31586314464712       -0.87672236540262        0.08750545249240
C           -3.15279039850802       -0.09067563030753        0.05130555064340
C           -3.39563388261579        1.29896826584383        0.05295799134091
N           -2.66365329907154        2.37216455711967       -0.00133929160939
C           -1.30663486573746        2.42434060193790       -0.04320797602067
N           -0.84141536943505        3.70568974627873       -0.08503163150023
H            0.10176795158301        3.87733451649751       -0.38204020131499
H           -1.53563077120795        4.41221475572663       -0.26229273599302
C           -0.45459672994930        1.35047227789504        0.00381915677298
C            0.95074749349177        1.10964747243692        0.00376748580074
C            0.68479067204708       -0.36617420108926       -0.00114460039045
C            1.59558933249343       -1.41929086557444       -0.01670757258702
C            1.10270197696733       -2.73253788713081       -0.05215638901293
N            0.69923725474575       -3.81184426723134       -0.09756230013753
C            3.00606384647479       -1.27218442616146       -0.01416932039541
N            3.74296693307359       -2.43215398208742        0.02442476007228
H            3.27850662035647       -3.30411260349853       -0.16575963262763
H            4.72272529908034       -2.38753021823304       -0.19300312149975
C            3.74760518686435       -0.08373010693045        0.01934414635810
C            3.40367553504420        1.26088047370413        0.05236314491141
N            4.44153052266132        2.16787555470322        0.02918722028657
H            4.24165220204265        3.11052812531011        0.31840211500657
H            5.36193792913391        1.83408845869978        0.26111360688809
C            2.10192888190647        1.82157952268581        0.04243294081215
H            2.05092804410847        2.90377862060895        0.07660679252306
H            4.82014850102479       -0.25753429232943        0.02749974655593
C           -0.69819554001383       -0.12176527329194        0.01233540852767
C           -1.91447857234176       -0.80601293046174        0.02649337753005
N           -1.97184980177517       -2.14864656475726        0.02579491966818
H           -1.14041738119707       -2.71548702937185        0.00976622181471
H           -2.87102410901418       -2.60240827007158        0.03770840054609
H           -4.45734419193890        1.54390351273099        0.09523789794268
