29
 energy: -50.343865357485 gnorm: 0.000825778734 xtb: 6.6.1 (8d0f1dd)
N            5.53086470213037        0.53316240010572       -0.02760707965867
C            4.38285336432138        0.47397968003984        0.00254902190183
C            2.97217940510269        0.40284160564022        0.02029530579551
C            2.34993267885169        1.65222548438880        0.02565029451846
C            0.98681415852884        1.97187577131795        0.02952447785763
C            0.01300514637054        1.01870125611123        0.02101772842902
C            0.16463918088294       -0.50281176141418        0.01359708907346
N            1.17481529425162       -1.32882947368136        0.00797536050364
C            2.44144755341807       -0.92859266083025        0.01885615166019
N            3.33657597410872       -1.96250846918570        0.07497676341880
H            2.97000987806825       -2.88412661507509       -0.08451575774824
H            4.31000121252726       -1.79505790610188       -0.11096742828900
C           -1.22504072952246       -0.63307061343303        0.00903847065114
C           -1.38810997883566        0.84055357474866        0.01507653374792
C           -2.55615253145056        1.58376254979860        0.00472622634780
N           -2.50791095190608        2.93842704567319        0.02619909204444
H           -3.34993970403162        3.47506065053461       -0.08295360960498
H           -1.62385465173383        3.40419883451550       -0.06546463843535
C           -3.82872859262505        0.95383375382355       -0.00309374861551
C           -4.15677700686997       -0.38759569363066       -0.00292510020127
N           -3.49231909188273       -1.53637723815231        0.00177445156389
C           -2.16380687341068       -1.67089669728313        0.00687547490881
N           -1.70586813969123       -2.93620709146877        0.00656775753900
H           -2.36380597331030       -3.69502628306250        0.02057855623703
H           -0.71415980937124       -3.09818041269834        0.02896302593418
H           -5.22941736893192       -0.57847294221378       -0.00874267931440
H           -4.67149530299657        1.63494724189242       -0.00952322301233
H            0.73123827424746        3.02575986696553        0.03944883012863
H            3.03433959056023        2.49325067337508        0.02533469971835
