27
 energy: -46.904514635452 gnorm: 0.000473336428 xtb: 6.6.1 (8d0f1dd)
N            5.34574363183616        1.80923487863963        0.01418445378234
C            4.43695849629606        1.10560023379520        0.00808093690895
C            3.31012917773608        0.25657284514176        0.00130638339054
C            2.02482025025268        0.96101161549069       -0.00289033885294
C            0.86321774041871        0.31197613301381       -0.00605065407406
C            0.49239295245232       -1.11793846593025       -0.00615531310559
C            1.32311679590599       -2.25907328507968       -0.00697201244940
C            2.68010962386794       -2.22259451147787       -0.00541569739143
C            3.55625006218495       -1.08300464587836       -0.00016121427706
H            4.60849504896859       -1.35080540227356        0.00324753269934
H            3.19993658316672       -3.17191333495247       -0.00759281827941
H            0.82414744311882       -3.21940892462697       -0.01025102078337
C           -0.86217539638849       -0.81258164860282       -0.00919949802346
N           -2.01158118837415       -1.50111755902899       -0.00961684273939
C           -3.16457700033519       -0.89225160816878       -0.01530876021178
N           -4.25338410227232       -1.69837302000384       -0.05682169927359
H           -5.16208476607078       -1.28973656376349        0.05707084523602
H           -4.11906416677728       -2.68874089041534        0.03251869231504
N           -3.53875689002180        0.42647496569517       -0.00545557479180
C           -2.83751525951571        1.51484899686226       -0.00262712725377
N           -3.55851222017434        2.65846930576772        0.01910935612262
H           -4.56080328663244        2.59193670579105       -0.00272997448466
H           -3.11902512085621        3.55927356868417       -0.02165760830791
C           -1.38770257693403        1.69885066973409       -0.00671204281742
C           -0.57780575821380        0.63517828907487       -0.00869975753500
H           -1.00593246986148        2.71146807881120       -0.00384279782370
H            2.06890974672300        2.04175524420081       -0.00284726927908
