25
 energy: -42.647283411904 gnorm: 0.000583785171 xtb: 6.6.1 (8d0f1dd)
N           -4.90968925373101       -0.20363445163445        0.03727253420889
C           -3.55111392514671       -0.20533405406359        0.01677280131527
N           -3.10955946018127        1.09602528385546        0.03260027371905
C           -1.87895858390744        1.50526690198099        0.02773599344214
C           -0.71637490920882        0.73058406683597        0.00636013989028
C           -0.57683758511794       -0.74978494968810       -0.01400041904066
C            0.85629663639711       -0.60552394969806       -0.02330410765979
C            0.66702995448500        0.89570006804772       -0.00731732273043
N            1.52563855303535        1.89700922886211       -0.01288274639536
C            2.81776903980782        1.68493273455680       -0.02722263619271
N            3.58444593144536        0.59108034157656       -0.01536562776084
C            3.27908191895572       -0.68354924776007       -0.01163901100372
N            4.36048151661826       -1.51033812092080       -0.02954535735892
H            5.26586923351741       -1.08475470480356        0.06812899395647
H            4.26219720757387       -2.49494449221425        0.13913282517632
C            1.98717302554182       -1.33137580858003       -0.02345972240764
H            1.96583362663371       -2.41510890811755       -0.02709399588094
H            3.41080690964708        2.59638837522573       -0.04029195872012
C           -1.52399808683090       -1.71466701454941       -0.02291406704259
C           -2.91000016963202       -1.43420346005393       -0.00912362497882
H           -3.56804911504679       -2.29423622891436       -0.01825500155805
H           -1.23245605931226       -2.75719308540368       -0.04208165451106
H           -1.76794390011111        2.58668055945922        0.04025781786006
H           -5.37053988805425        0.68860103949763        0.02874587896174
H           -5.44415986847794       -1.05137284429636       -0.00662255868856
