33
 energy: -58.026064128177 gnorm: 0.000642824949 xtb: 6.6.1 (8d0f1dd)
N           -0.90808436540014       -4.15248518622521        0.01825355111634
C           -1.08707079659669       -3.01363798595622        0.02316974122017
C           -1.32172862071868       -1.62918345347679        0.01234679108067
C           -0.24379970340033       -0.76878015938690       -0.01179749387063
C           -0.20141313979302        0.74677806377178       -0.00137633397401
C            1.19425071852912        0.70478635705384        0.01289419601256
C            1.16548655701388       -0.79598979676134        0.00018138328778
C            2.21725187366283       -1.70303992796205       -0.02247576220171
N            2.01416800363740       -3.03386146976610       -0.11897439175797
H            2.80276879783218       -3.65451927909002       -0.07310259181330
H            1.09173874560219       -3.43390897036306       -0.10091645788218
C            3.56890280053784       -1.27033222022330        0.07171723218686
C            4.08059349952299        0.00280808004935        0.15582012042280
N            3.57956066678852        1.22535096123881        0.05342044404732
C            2.30015010211772        1.57471984872734       -0.06546941419769
N            2.13384859365341        2.89208878614455       -0.29345855026112
H            2.96795434024948        3.45450815701010       -0.28662568254676
H            1.23430257397733        3.34082190317256       -0.26256183433259
H            5.15882988499457        0.04752492838460        0.30537885160532
H            4.29783618723648       -2.07004542043473        0.11948348542190
C           -1.24444916686333        1.66549493552374        0.03660888440892
C           -0.93420253697229        3.03119389272753        0.11837147430924
N           -0.69710440921445        4.15671782719038        0.20164919192396
C           -2.62445232749847        1.33744923441516        0.01275587016816
N           -3.50750925145883        2.39189516178473       -0.05860432279021
H           -3.16198674448900        3.31539054817165        0.14402063775401
H           -4.47075604425623        2.21990422420259        0.17162217878889
C           -3.20030196416420        0.06423819616303       -0.00019200143418
C           -2.69444725581142       -1.22811200426500        0.01129344674993
N           -3.62127745427599       -2.24357276420641        0.08513760630872
H           -3.32081800776099       -3.18401673152209       -0.10925900793573
H           -4.57837347588293       -2.02847016410810       -0.13349404090329
H           -4.28654208639909        0.09398395561558       -0.01051049891175
