26
 energy: -42.360693869268 gnorm: 0.000798847605 xtb: 6.6.1 (8d0f1dd)
N           -3.43442867197536       -2.33455637982986       -0.08711783741046
C           -2.54018169074554       -1.28762129539572        0.01020657022069
C           -1.17860849918655       -1.63888946206050        0.04860248443550
C           -0.14691419577992       -0.74565156993132        0.04450652075237
C           -0.15047734122919        0.74344931847702        0.07707977307918
C           -1.17772049526612        1.63257233607419        0.10766369738653
C           -2.54443757092835        1.27972069659695        0.04171617548979
N           -3.43761410187739        2.33004379324226        0.09705983167231
H           -4.38606371533957        2.15707672732399       -0.19060483800596
H           -3.08391903889808        3.24723977208470       -0.11664323593024
C           -3.09312372573226       -0.00129884705734       -0.00463702581515
H           -4.17934930839497       -0.00273300307774       -0.04469107738162
H           -0.94687602354946        2.68855195095695        0.18357791945650
C            1.27416884089708        0.75336544358218        0.12622189928997
C            1.27077158734374       -0.75599489786562        0.09544593104737
C            2.32980497920965       -1.55586538087028       -0.23808630332672
N            3.60756296746522       -1.20669790683568       -0.11762323051115
C            4.06164009509006       -0.00214955583718        0.17440435170317
N            3.61380317364068        1.21565299737977       -0.01769080702642
C            2.32869102975192        1.57025642781598       -0.14649988997786
H            2.17598362467638        2.61446545116542       -0.40576920642451
H            5.08809177563153       -0.02072704581616        0.54352981362685
H            2.17015189085548       -2.57939359752407       -0.56694110285682
H           -0.94220203310468       -2.69595449757588        0.07979705787043
H           -4.39707997275978       -2.15439035746930        0.14344501403274
H           -3.09799426009435       -3.25018113435250        0.15907430490362
