26
 energy: -43.166800375320 gnorm: 0.000679702457 xtb: 6.6.1 (8d0f1dd)
N           -1.94322772853081       -3.49444568649936        0.00135450195449
C           -2.01128833404638       -2.34860856850582        0.00165587591736
C           -2.09245684371482       -0.93818583893742        0.00085676940144
C           -0.91530857738343       -0.20795979872922        0.00042354598816
C           -0.73229997980652        1.28928308380863       -0.00005530251822
C            0.68157172718678        1.08884664547099       -0.00026748233978
C            0.47392800542971       -0.38224362080886        0.00026321103218
C            1.39536005251629       -1.41706817594381        0.00043803869934
C            2.75788061732132       -1.24994332954028        0.00007870275736
C            3.52871318125851       -0.04997045923341       -0.00050863645529
N            4.87232420193271       -0.25025044672260       -0.00064960898838
H            5.25262909417715       -1.17925145368359       -0.00095821126100
H            5.50610840680688        0.52846651168548       -0.00149672315245
C            3.11716355727230        1.28910551870083       -0.00082589142797
C            1.82917716877551        1.82631503714169       -0.00071911128557
H            1.74962073614491        2.90674158535522       -0.00098097298207
H            3.92644952797875        2.00960901332433       -0.00121407503790
H            3.35209825302897       -2.15561417814748        0.00023796894303
H            1.01040772549340       -2.42977006931019        0.00080888852964
C           -1.65867849219187        2.27733024368751       -0.00019380156243
C           -3.05828201407948        2.02709771672854        0.00008399547676
N           -3.74798604965362        0.91798578399387        0.00049792422922
C           -3.37185527923062       -0.34995137544851        0.00084413861987
H           -4.21420105828143       -1.03618923149250        0.00121122390322
H           -3.69319693644719        2.90971022562708       -0.00008762394397
H           -1.34132886695709        3.31298822057888       -0.00059018389707
