27
 energy: -46.899238781938 gnorm: 0.000533033069 xtb: 6.6.1 (8d0f1dd)
N            4.36052854085271        2.51878950818816        0.00174546676649
C            3.56821031005474        1.68216077679875        0.00164166455390
C            2.61882640821956        0.64744649401853        0.00094101939479
C            1.24876329462395        1.09220689899418        0.00105413761272
C            0.19270020806689        0.26894036058325        0.00062424690342
C            0.06100489644967       -1.20634647893634       -0.00008141132796
C            1.06951807095428       -2.17666640376763       -0.00048734469235
C            2.40489525148876       -1.91492889442076       -0.00028835666273
C            3.11628437233785       -0.65847314045743        0.00036290960688
N            4.46487357933308       -0.80248773573487        0.00046578370731
H            5.05838311188774        0.01020745900216        0.00077771474964
H            4.88570258427151       -1.71369044670355       -0.00011483624379
H            3.06449507090137       -2.77480541015424       -0.00065005673310
H            0.76029845859956       -3.21493040606398       -0.00099217968780
C           -1.33063003944346       -1.13525411770041       -0.00010506897612
C           -1.26355406230717        0.35574676047831        0.00058167046612
N           -2.11709603726515        1.30045954459990        0.00100999207228
C           -3.47359882632824        1.01274730848330        0.00079291653392
N           -4.20802093827184        2.14656478414374        0.00012388553414
H           -3.73618468043563        3.03197332292328        0.00292024280776
H           -5.20933162498365        2.08495810101017        0.00231269890082
N           -4.14709729178450       -0.10108695194412        0.00077527447321
C           -3.73867337935213       -1.38123599863047        0.00035527281846
C           -2.47844316437016       -1.93093108304003       -0.00016622698733
H           -2.37987468189486       -3.00874915088241       -0.00049077616491
H           -4.58507874972356       -2.06195297343640        0.00050009908298
H            1.09657446721878        2.16356074014897        0.00155532359123
