28
 energy: -51.434934805043 gnorm: 0.000340644401 xtb: 6.6.1 (8d0f1dd)
N            1.16748802531335        4.16040187113324        0.00349823568772
C            1.41540797416516        3.03807218902518        0.00328201997603
C            1.70088936464642        1.65566817570372        0.00220042251541
C            0.64698045431715        0.76441585819555        0.00132029463243
C            0.66681122261372       -0.74740940860369        0.00033252691360
C           -0.74256308266496       -0.75073878127977       -0.00006737707978
C           -0.76198980850256        0.73077813257337        0.00081489247997
C           -1.87117080792948        1.59054447132398        0.00173374626201
N           -1.74097193933696        2.92378602721057        0.00418158992113
H           -2.59005046171901        3.46410985755955        0.00441158200704
H           -0.84786272672540        3.38997111482782        0.00486708938354
N           -3.15145783000243        1.18203864009557       -0.00000926737627
C           -3.61136973129166       -0.04744612367422       -0.00195628243125
N           -3.11938636726431       -1.26444584234157       -0.00124164457972
C           -1.82882892046476       -1.63927484427256        0.00008044297615
N           -1.66378245812366       -2.96865371953492        0.00139351156947
H           -2.49844622809452       -3.53099006299386        0.00101265511075
H           -0.75879140717981       -3.41133072800138        0.00124758771395
H           -4.70276386792063       -0.06175091770645       -0.00432551563883
C            1.74372720875044       -1.61071559400960       -0.00018486654082
C            1.49454502526695       -3.00012668199358       -0.00120084133803
N            1.27597270599271       -4.12859012734350       -0.00244078157738
C            3.09784907945561       -1.22514622440214        0.00048656513892
C            3.64804568052519        0.04772765137792        0.00163841527446
C            3.06465537833879        1.30573833114899        0.00240823293358
H            3.74990906822412        2.14447292489629        0.00328108068174
H            4.73178176673728        0.06194269811050        0.00199232322919
H            3.80485989387321       -2.04562494912499        0.00006740785498
