26
 energy: -47.967533817061 gnorm: 0.000578653420 xtb: 6.6.1 (8d0f1dd)
N           -5.36027871011479       -2.24412995609965        0.00010210858865
C           -4.54343216818342       -1.43787402523922       -0.00024873068510
C           -3.52502783949085       -0.45618305317971       -0.00109059240199
C           -2.16960861060881       -0.99610876718501       -0.00040838785400
C           -1.09298454554718       -0.21013876743113       -0.00099743737162
C           -0.89298190585791        1.25082626489260       -0.00230913496871
C           -1.85628603177460        2.28504532570028       -0.00334684446607
C           -3.19804583911661        2.08003831703659       -0.00330051684040
C           -3.93219669496919        0.84513469808768       -0.00229624350328
H           -5.00853048679688        0.98441555696218       -0.00254412681315
H           -3.82810127874244        2.95992403845604       -0.00413443165058
H           -1.47816638252204        3.29853166813448       -0.00423987751217
C            0.49044686247993        1.11543518073462       -0.00201884127870
N            1.55784572055048        1.93833623778743       -0.00265691290150
C            2.75049286302302        1.45203588725290       -0.00206676749289
C            3.23255392071756        0.08822473207010       -0.00074834800072
C            4.63825296764031       -0.01606421914796       -0.00011215856393
N            5.78356370055147       -0.11695183315855       -0.00021627423873
C            2.54447148586143       -1.12946366582537        0.00032071122479
N            3.22024624498922       -2.29106035750323        0.00154288696498
H            4.22613780681817       -2.31160770296309        0.00171633860618
H            2.68916396681459       -3.14463970729309        0.00229410588872
N            1.17953430968370       -1.34776123524385        0.00032475612746
C            0.37783424218063       -0.35641149354471       -0.00069483769842
H            3.53881120528073        2.19819946984866       -0.00264983184512
H           -2.07095441826652       -2.07247458764900        0.00059622028631
