29
 energy: -50.346582256254 gnorm: 0.000977831447 xtb: 6.6.1 (8d0f1dd)
N           -0.88541935009758       -4.06473594607654        0.00692949609151
C           -1.17092716326777       -2.94908630694832        0.00835474686904
C           -1.46473156904711       -1.57513422654046        0.01065506090796
C           -0.42643620393669       -0.64238825759121        0.00528196584660
C           -0.58699639011042        0.87923980490731       -0.00148198306408
N           -1.58525557404264        1.69085011839288        0.00413724582281
C           -2.86510814940834        1.22079878516626        0.02135038504087
N           -3.78888718928250        2.22292094578925        0.08689753273118
H           -4.74962457143069        1.97264681573522       -0.06571736210812
H           -3.48608146900808        3.15815379581755       -0.11756748964942
N           -3.37698691453329        0.01022830704080        0.01391675188356
C           -2.81186901999426       -1.18618497190976        0.01317843673251
H           -3.54612384109355       -1.98787992929314        0.00945189555660
C            0.82364372269462        1.00135230283310       -0.01545744346700
C            0.95224183085585       -0.47614515712441       -0.00848735200681
C            2.12841967551432       -1.26595956234966       -0.01042165502525
N            2.01127996100657       -2.60986745146535       -0.01261082283475
H            2.83355217694055       -3.18706449593517       -0.00851029874797
H            1.11030935240543       -3.05951884741026       -0.00841352159562
C            3.40106813351659       -0.69793433305055       -0.00869774674647
C            3.80362547326369        0.64540234393110       -0.00459852604667
C            3.12617089067422        1.83848373554836       -0.00488760318261
C            1.71991336318946        2.04827246379187       -0.01354932807323
N            1.23484229198289        3.31180744355723       -0.04583401434748
H            1.84365667423750        4.09910078909848        0.08046371554128
H            0.23880736061592        3.43215406093643        0.02886291754533
H            3.72664482299650        2.73949926352973       -0.00132544292027
H            4.88309298450465        0.75719902845310        0.00021302244207
H            4.21451547385357       -1.41423340553357       -0.00859397439565
