29
 energy: -51.144405542277 gnorm: 0.000291575181 xtb: 6.6.1 (8d0f1dd)
N            4.27409614701956        2.50123310067869       -0.00423482747539
C            3.46406993723543        1.68279593419063       -0.00309167573655
C            2.48615899132551        0.67125957876722       -0.00185460524268
C            1.16288566830398        1.13154533980938       -0.00098477417484
C            0.06406096517106        0.32032734612712        0.00010802064492
C           -0.05339675183586       -1.14688049818782        0.00081493655245
C            0.91480424581619       -2.15877077882559        0.00054878151407
N            0.46623191026339       -3.42918370092850        0.00126127202821
H           -0.52901086189873       -3.57958602046026        0.00233741156081
H            1.09454264065443       -4.21220154030238        0.00177393692121
C            2.28677599127600       -1.89129224269202       -0.00051260581066
C            2.98170263620278       -0.67701123900811       -0.00165069511939
N            4.33368211392617       -0.78336247379266       -0.00265779152972
H            4.90871330511603        0.04203081058060       -0.00356400669004
H            4.77629835597856       -1.68421899779496       -0.00267486551348
H            2.92306244716107       -2.77016665650354       -0.00058672953169
C           -1.44956114140288       -1.07136991220283        0.00205567975844
N           -2.43759086290732       -1.92864072392620        0.00346899411214
C           -3.69853968049112       -1.53883565385097        0.00461097661052
C           -4.28109341526918       -0.25320439249104        0.00458000655028
C           -3.73337745390095        1.00928779024008        0.00338243491187
C           -2.35587596189651        1.37358252089051        0.00180337522968
C           -2.03192382883088        2.75073295655169        0.00072755591647
N           -1.76066587309316        3.86536470857562       -0.00009201299781
C           -1.35572593881393        0.44550297117071        0.00128854362979
H           -4.42782415872565        1.84076824002031        0.00366835375878
H           -5.36527890366491       -0.27526070477896        0.00568618934747
H           -4.39493089710313       -2.37093737548383        0.00575508673516
H            1.01837214408411        2.20540960962711       -0.00126865776005
