29
 energy: -50.341825856517 gnorm: 0.000756719803 xtb: 6.6.1 (8d0f1dd)
N           -0.92247336207868       -3.99854609141646        0.05087042099754
C           -1.19626365884224       -2.88013383698740        0.03823394672660
C           -1.49920126193084       -1.50796447328722        0.02235886432350
C           -0.45747470717219       -0.57846122323117        0.00643602542784
C           -0.57095067097503        0.92758350415098       -0.00521830590778
C            0.85485429884147        1.00811724695738       -0.00824862696687
C            0.93257484875335       -0.47349940475288       -0.00599251588628
C            2.08143272123051       -1.29020546429014       -0.01327641745409
N            1.96051976003413       -2.62993142086526        0.00298856347242
H            1.05910750007585       -3.07984172182588        0.01441230878454
H            2.78335749153641       -3.20700049452414       -0.00640608000663
C            3.36749049924339       -0.73050533485957       -0.04007812521026
C            3.76874037936470        0.60592752771765       -0.05664010544233
N            3.16710745064276        1.76760641865172       -0.02582797493912
C            1.83053963187584        1.97955741216423        0.00612104410575
N            1.50908241342071        3.30097100853470        0.01383558483462
H            2.26879984194059        3.94566229188162        0.14632657070675
H            0.57493111719886        3.58906948333018        0.23775947775103
H            4.85031194302037        0.73482544385803       -0.09191038717274
H            4.17913110444194       -1.44825887057610       -0.05569469936740
C           -1.65727912883770        1.72900337213099       -0.04002678907160
C           -3.00238965078697        1.23874260140720       -0.04445622593256
N           -3.98771777112656        2.18500682987413       -0.15081302809297
H           -4.93066942454280        1.85870421609223       -0.02579762600165
H           -3.78870212112881        3.14573816383249        0.06252180462403
N           -3.47031584768145        0.01007632678246        0.00164474280726
C           -2.85655127530538       -1.15960611779991        0.02906225098092
H           -3.55927000662087       -1.98832625638611        0.06135296615141
H           -1.54001355429146        2.80633055053641       -0.07922579924192
