27
 energy: -51.684929881259 gnorm: 0.000744347506 xtb: 6.6.1 (8d0f1dd)
N           -5.07424188824260       -0.45060363077267       -0.01706596546870
C           -3.92540390554777       -0.38806565853552        0.00028249536713
C           -2.51573953485399       -0.32287274542466        0.02033340820323
C           -1.89230184135027       -1.59248330466131        0.02540602336406
N           -0.58204099067556       -1.92038560638588        0.08244772861908
C            0.36460850341605       -1.05581826860757        0.05582350709931
C            0.41959520844400        0.44637118256266        0.02834507355354
C           -0.62466614489260        1.36695826919849        0.05201774302351
C           -0.29396837582668        2.73599295151801        0.10004966305858
N           -0.02748994093691        3.85352954912778        0.13112635952120
C           -1.99009374536013        1.00657022881148        0.03932150799038
N           -2.89198150753150        2.01919487537976        0.04436687025566
H           -2.57172448693617        2.97208287460742        0.06583954150533
H           -3.87957663235791        1.83313149321812        0.04898098559694
C            1.81105098829507        0.40791350250572        0.09256504116672
C            1.79398096183632       -1.10395084305449        0.09421233379051
C            2.82422166412152       -1.95312946436080       -0.14905009754802
N            4.10995272633871       -1.60881101417186        0.06863164575060
C            4.56170766076227       -0.40867218660159        0.21791842592623
N            4.13954210055834        0.78042078628527       -0.23937818226729
C            2.90596710710306        1.18514614486325       -0.29670353184787
H            2.74348541626508        2.18259392329617       -0.69464334668158
H            5.54091250020647       -0.34905453727533        0.69197910037181
H            2.65963191932637       -2.99365118988045       -0.39882469388569
N           -2.67040491812255       -2.69574462310336       -0.01911130024572
H           -3.67307988741985       -2.64315712637162       -0.05816236042997
H           -2.20669967121932       -3.58692494856704        0.00112843900986
