32
 energy: -53.509382814161 gnorm: 0.000750941766 xtb: 6.6.1 (8d0f1dd)
N           -1.28648043982508       -3.98630199855194       -0.03604621455635
C           -1.52968216873622       -2.86075991475229       -0.03198289807274
C           -1.81956552763462       -1.48454571377503       -0.02660212917330
C           -0.77869506229268       -0.56997409655835       -0.01774181773131
C           -0.85809899164704        0.93934713867888       -0.01537362398511
C           -1.92192065958657        1.78620598985809        0.01991943019405
C           -3.27787696167044        1.39899972526612        0.02258478329875
N           -4.20502493061533        2.43276027642579       -0.01505412864499
H           -3.89363588798521        3.32918167151457        0.32282292994895
H           -5.14882782893337        2.19825047215099        0.24746531470682
C           -3.79184634802577        0.09920264611026       -0.00853894077858
C           -3.18413734529572       -1.14353189563604       -0.03314884550756
H           -3.86159818796218       -1.98943186556158       -0.04972840743798
H           -4.87692400171530        0.06065681625039       -0.01127599077645
H           -1.73843217919718        2.85562519203607        0.05468363026464
C            0.55741002339878        0.98972127763809       -0.01280418746547
C            0.62250541551964       -0.48962100526432       -0.00447996664150
C            1.75274951642368       -1.32480703013501        0.00325876499409
N            1.61524750769807       -2.66551690797449       -0.01106998676154
H            2.45343278428644       -3.21913558483023       -0.00791548133347
H            0.71511366499537       -3.11445589039812       -0.02745361561545
N            3.01903127913892       -0.92299089006894        0.03819064416804
C            3.50891273934374        0.31805304801830        0.02882310013931
N            4.87716879942457        0.29286796748849        0.02645163725769
H            5.39988323285224        1.12208824699384        0.24307059050097
H            5.30422467440594       -0.60081566483063        0.19628579489746
C            2.92382028417787        1.58766364294481       -0.03034519924043
C            1.56756500727990        1.93809828838298       -0.05116341983343
N            1.24326407073855        3.27179650942378       -0.05081854098912
H            1.96185004463187        3.92321800234205       -0.31988455047855
H            0.30719096932045        3.51088982756157       -0.32866602787045
H            3.62383694558844        2.41478647175235       -0.05552550717693
