28
 energy: -51.436742191360 gnorm: 0.000653217036 xtb: 6.6.1 (8d0f1dd)
N           -1.58235690211996       -4.20547133295765        0.00149285364301
C           -1.76452182874632       -3.07316924768447        0.00164323270571
C           -1.99406096395567       -1.67550807663917        0.00133873467817
C           -0.90978673579834       -0.84181664244788        0.00125197225664
C           -0.80714750101171        0.65743003722770        0.00118482773983
C           -1.83474154056530        1.59617988365494        0.00115487773675
C           -1.47527678468236        2.96035811203806        0.00245499887610
N           -1.13970809284542        4.05993757596292       -0.00066733290948
C           -3.19854268068194        1.29373236071001        0.00116689950496
C           -3.83483000646274        0.04785521788564        0.00126331125432
C           -3.34349525319526       -1.23934188706630        0.00137201196254
H           -4.07915310262109       -2.03405188923785        0.00154244599915
H           -4.91691552485533        0.11297672410911        0.00137433813214
H           -3.85919557127153        2.15232519255190        0.00123278213770
C            0.59085014295968        0.56047126062635        0.00122585522899
C            0.51095248179512       -0.91722978072946        0.00128520940130
C            1.50346176167623       -1.86609077165560        0.00171322120426
N            2.80341781178839       -1.63619623668156        0.00152198946712
C            3.39755839381556       -0.43369989441744        0.00099556713552
N            4.74022563803578       -0.54545025442766        0.00000530989198
H            5.30767560555251        0.28273747874386       -0.00027546577458
H            5.14732823502819       -1.46362134506761       -0.00023118129397
N            2.99822928886969        0.84000851865788        0.00147094007622
C            1.76808767916122        1.34091774288349        0.00168957782831
N            1.71524713023902        2.68095494127400        0.00235444156187
H            0.84536153790064        3.18908171566796        0.00220362943343
H            2.58706519089024        3.18220736811546        0.00256260795670
H            1.23624593250071       -2.91860098499663        0.00218928986536
