34
 energy: -63.347668948100 gnorm: 0.000549422432 xtb: 6.6.1 (8d0f1dd)
N           -5.83103425482038       -2.13159506464910        0.00572768583014
C           -4.95415054474338       -1.38885668703707        0.00420176654879
C           -3.87797513027662       -0.47995891299417        0.00132605266431
C           -2.56090990622808       -1.06760003871946        0.00204941885957
C           -1.44177206728897       -0.33629061059625        0.00099282853632
C           -1.11547901637304        1.09832391485991       -0.00101828475395
C           -2.02606509012172        2.19921258504782       -0.00489891682292
N           -1.54022032033515        3.45805720835561       -0.01048175422907
H           -0.55302306546012        3.65281388063955       -0.00554346948869
H           -2.17804659007323        4.23446674200559       -0.01019897687510
C           -3.40217167390450        2.02047948473805       -0.00490466307099
C           -4.19542534226316        0.85885229381720       -0.00175658259993
H           -5.26100976494373        1.06400976192418       -0.00193922042393
H           -3.97104596285585        2.94323592618009       -0.00779691063001
C            0.26117650110959        0.82849813454282        0.00043777280228
C            0.00771794830311       -0.60593029610539        0.00154966988612
C            0.78643412342146       -1.71009728440157        0.00139463869739
C            0.16431898313245       -2.97997520432722        0.00197531361717
N           -0.30896966096204       -4.02571532641058        0.00456887996144
C            2.24359105086040       -1.68935464034849       -0.00105158226028
N            2.82464459469713       -2.90852892548225       -0.00345346480115
H            2.25817384198597       -3.74008140805426       -0.00352012731355
H            3.82679741303160       -2.99973455972960       -0.00566343193823
C            3.05185586258511       -0.55692907664457       -0.00143124596408
C            4.43292025422994       -0.85446073253500       -0.00541811203701
N            5.55353605115107       -1.11705208462660       -0.00909053714129
C            2.76456729308917        0.86610983381377        0.00212073414162
N            3.86556021715898        1.66577536284674        0.00501657955354
H            3.75699301082677        2.66485841383727        0.00672955585765
H            4.79125105988941        1.27637030648867        0.00413923867481
C            1.51947910756877        1.49355729554555        0.00262350006615
C            1.52353791113456        2.89356723985870        0.00674534798003
N            1.52247005776429        4.04757650497359        0.00970237825299
H           -2.50331655878988       -2.14773489971356        0.00392753011985
