25
 energy: -43.441133519755 gnorm: 0.000619994041 xtb: 6.6.1 (8d0f1dd)
N            0.41465481498696        3.99871433312787        0.11955791726017
C            0.77665028732778        2.90959281596823        0.08649728262734
C            1.21020918963457        1.56842319783790        0.03736992806150
C            0.23767096267399        0.54810508349452        0.00476366314390
C            0.45738477700622       -0.92475532595833       -0.02395162587691
N            1.46192294304065       -1.70785793656093       -0.00230313730080
C            2.75206534346992       -1.24091800074347       -0.00480137431822
N            3.63871965747255       -2.26929346462986       -0.04955795956438
H            3.27188631065267       -3.20024366546022        0.03750789365930
H            4.62355920100485       -2.11307435357002        0.05977787251034
C            3.22861381819656        0.06326808505415        0.00504926558520
C            2.56881891436759        1.30272793480488        0.02328682373487
H            3.22002715056324        2.16831756395967        0.03590354374474
H            4.31047187257391        0.13339029601722        0.00199154129470
C           -0.99034562702854       -1.11689668091209       -0.00973338877390
C           -1.13779071410234        0.36293848655299        0.04799807438393
C           -2.32843962789424        1.09702599706539       -0.14641576621472
N           -3.52790090811749        0.63285580833254       -0.09847608529554
C           -3.93209336718607       -0.64502186413953        0.13307837590192
C           -3.30842472462686       -1.84773333547311        0.00701626540432
C           -1.89782589832671       -2.09969596448937       -0.11782260489672
H           -1.57466309847646       -3.12710709514673       -0.21403075991736
H           -3.93341981669891       -2.72802402378611        0.08030025735488
H           -4.99396742676078       -0.66685435941387        0.36404869550863
H           -2.24315289865135        2.14971973066743       -0.40511038121666
