23
 energy: -39.196629575441 gnorm: 0.000987113036 xtb: 6.6.1 (8d0f1dd)
N           -1.51507117775429       -2.61866901130582        0.00189861168102
C           -1.72325150952220       -1.29269392133913        0.00152046818612
C           -0.58768262897229       -0.45917138990765        0.00146109704822
C           -0.49833748925234        1.01656313077582        0.00133743014980
C            0.93666372249566        0.92372979729792        0.00189888815368
N            1.93956574563938        1.71936734380340        0.00216531433309
C            3.19843173034379        1.20835990608187        0.00283539821863
C            3.64340176417328       -0.09383971272433        0.00316715008605
C            2.94897373797985       -1.33392850901399        0.00296274294664
N            1.66203506019723       -1.59479544649487        0.00244346327109
C            0.79159865909579       -0.60201304748352        0.00205109105708
H            3.56947435366753       -2.22381394143422        0.00328540008891
H            4.72229383743776       -0.20280186832599        0.00364931468778
H            3.95044949218968        1.98929778013311        0.00311502716682
C           -1.47695885229618        1.96380516258410        0.00141171082348
N           -2.80082248662126        1.75133458834100        0.00072022350720
C           -3.41058507642713        0.58641873937597        0.00038541111854
C           -3.01778935278656       -0.75646031539164        0.00108807610911
H           -3.82666481841107       -1.47694158998309        0.00100388433590
H           -4.49219172698510        0.71926856233072       -0.00053716052069
H           -1.20465304733547        3.01403145684924        0.00195548119974
H           -2.28086390350785       -3.26931745609596        0.00209094492993
H           -0.56569753124821       -2.95476183147290        0.00212369502190
