32
 energy: -59.111728560778 gnorm: 0.000735521671 xtb: 6.6.1 (8d0f1dd)
N           -5.33728820359085       -1.83138008433211       -0.06061017983007
C           -4.41780998283706       -1.13784211509783       -0.04063404041551
C           -3.30373753676110       -0.28180469297428       -0.01631788606294
C           -2.02956714629906       -0.96377424457704       -0.02340492230970
C           -0.85306711782355       -0.33097365899805       -0.01036625486493
C           -0.46902104794715        1.09971508532502        0.01303291055702
C           -1.28971237018977        2.23765897084795        0.03698716932255
C           -2.64600501882754        2.20695173543156        0.03629562988860
C           -3.56617737894084        1.08574379130011        0.01038917276257
N           -4.86860896685037        1.46709864132247        0.01385852338917
H           -5.12072350614705        2.43849424362421        0.02718611525491
H           -5.59810068091334        0.77423065940054       -0.00611816332798
H           -3.14997430884429        3.16574139998557        0.05652261711197
H           -0.79668454960551        3.20156771444087        0.05740425284149
C            0.88577586362102        0.77724456523565        0.00464617513027
C            0.57303147835065       -0.65886045372412       -0.01314986230696
C            1.35884782078797       -1.75909016241708       -0.01162846626917
C            0.78828277571820       -3.04715224714340       -0.02536204665254
N            0.36267690551960       -4.11429293320108       -0.03577571875557
C            2.82778407043243       -1.65929533009431        0.01914470541277
N            3.48049718496546       -2.84021065000325        0.07868108255381
H            4.48496707328015       -2.83095657383563        0.09521859015390
H            2.98392378712821       -3.71424465682871        0.08275253016152
N            3.58753575233514       -0.61208860968775        0.00095100936721
C            3.35574816702743        0.71724000529238       -0.03483593110844
N            4.51585271123889        1.42083709045534       -0.11298423458402
H            4.50888579730309        2.42377503070108       -0.05431761354347
H            5.38106595974802        0.91729064991149       -0.04215098184981
C            2.14363295431319        1.41875937315101       -0.00805485756003
C            2.17675780023085        2.82110174027427       -0.00042115425144
N            2.21587515701434        3.97149303635478        0.01424589920597
H           -2.06910603213665       -2.04527862463915       -0.04257295082039
