31
 energy: -55.391850154406 gnorm: 0.000812130745 xtb: 6.6.1 (8d0f1dd)
N            6.17450665934071        1.49697837298082       -0.00199483950896
C            5.05209276254959        1.26275483791825       -0.00121101727296
C            3.66114473721611        0.97303890648856       -0.00088671441741
C            2.84195442080139        2.09804681418166       -0.00152483525539
C            1.43900385184042        2.15499769704414       -0.00137228699203
C            0.62617667406185        1.06812243338699       -0.00055635145330
C            0.90292746482201       -0.41269804819517        0.00032372452103
C            2.13865779696475       -1.05165365833822        0.00061044429144
C            2.17967348695373       -2.46221864998784        0.00192912574047
N            2.18592044115032       -3.61195689764872        0.00193694886290
C            3.37671950299458       -0.40509679725793        0.00005819121947
H            4.24557344878146       -1.05374755404889        0.00042534174756
C           -0.47786293223573       -0.66956567259423        0.00070388106693
C           -0.77023183975239        0.77719774805678       -0.00014969240565
C           -1.93070578827073        1.49616678196364       -0.00039984029210
C           -3.21538544745332        0.94641304924439        0.00015422588250
C           -4.27069836516828        1.87537437104768       -0.00097619890074
N           -5.13832943642854        2.63249078906743        0.00050305684898
C           -3.58329533444961       -0.43933171257642        0.00112076158851
N           -4.91888944983657       -0.67489315014065        0.00146970731409
H           -5.27471554114159       -1.61342900530595        0.00214036652561
H           -5.56962760067821        0.09204144653698        0.00118486129514
C           -2.76950942026816       -1.57272841374294        0.00164586058502
C           -1.37772633548553       -1.74996659948689        0.00147479101502
N           -0.91562464076098       -3.01474184975710        0.00203272862611
H            0.07044419383836       -3.21770203928465        0.00200410524488
H           -1.55845214599967       -3.78696212196800        0.00259184993301
H           -3.32726068360422       -2.50431861191881        0.00224157589853
H           -1.86538591294636        2.57761303427752       -0.00115059105728
H            0.98529986889161        3.13796783687714       -0.00191322484666
H            3.36038163837301        3.04891710718044       -0.00221252220473
