28
 energy: -52.215928142119 gnorm: 0.000228487866 xtb: 6.6.1 (8d0f1dd)
N           -5.74819943071420       -0.08533955700927        0.00185049298779
C           -4.60241686880995       -0.07487198656378        0.00091897143532
C           -3.17977266104587       -0.05634815904014        0.00018812263703
C           -2.64023670833262        1.25434902475246       -0.00089830025910
C           -1.30748434764274        1.63845277504458       -0.00187457116954
C           -1.01103467549696        3.02431615286201       -0.00362835520721
N           -0.74623713450538        4.13966511635632       -0.00318677637775
C           -0.22571505136782        0.75848328361553       -0.00196429164228
C           -0.20563185935551       -0.74024765075815       -0.00112182968572
C           -1.21931151598618       -1.65362657347239       -0.00001943572231
C           -0.89045941570446       -3.03189306617157        0.00041259945149
N           -0.61908342339997       -4.14552437504456        0.00132320008180
C           -2.60015994991431       -1.31224233912128        0.00055426191350
H           -3.28543974321012       -2.15191102718053        0.00136633043758
C            1.22495483446160       -0.69840633508084       -0.00198658366442
C            1.17027338048635        0.78560443735195       -0.00280287538900
C            2.22326713023269        1.69830991377926       -0.00408552416461
C            3.53765193718852        1.32398564377590       -0.00460253811262
C            4.10282391614976       -0.00412453340788       -0.00389226644935
N            5.45024687505663       -0.04121516471727       -0.00422052933558
H            5.89116721433922       -0.94571701539373       -0.00376193634564
H            6.01150682814357        0.79150408301660       -0.00486217213967
N            3.57749074423374       -1.21973623141567       -0.00306713141114
C            2.28778255548849       -1.55290540579693       -0.00229687859238
H            2.11706721603647       -2.62506878790921       -0.00182576661375
H            4.27532072617087        2.11580672912639       -0.00557121589917
H            1.98294319680285        2.75399906619031       -0.00470094881848
H           -3.37316846610452        2.05227501191173       -0.00105145494442
