30
 energy: -54.878161264755 gnorm: 0.000630074506 xtb: 6.6.1 (8d0f1dd)
N           -0.07988336068410       -4.29212301747023        0.00360867867107
C           -0.61770272004374       -3.27472106374575       -0.00279710092517
C           -1.22941724862454       -2.00797668267522       -0.00725279035256
C           -0.40427377860710       -0.88034401114368       -0.01182907157532
C           -0.80941277978011        0.56293222416784       -0.01427705243742
C            0.57100175238118        0.92971379681415       -0.01012495938387
C            0.94064489631230       -0.51004108861074       -0.00829006920982
C            2.25216400397631       -1.04187922123747        0.00155849989269
N            2.45493948363502       -2.36894204840696        0.01016919319756
H            3.40574018825323       -2.69560671698471        0.01706697063520
H            1.69628047930788       -3.03157903976353        0.00716437456430
N            3.35765015105879       -0.31339308142992        0.00382244904468
C            3.49314995647234        1.02290301628763       -0.00186160445425
N            4.79362454374033        1.38486582986351       -0.00438874107725
H            5.50329881707512        0.67525238565580       -0.00243007521500
H            5.02320837900625        2.36218878570893       -0.00758948597607
N            2.68114515133735        2.07873679351910       -0.00327787701054
C            1.35122387204139        2.04863913082565       -0.00635820064090
H            0.88853635265569        3.03078197551202       -0.00643389022428
C           -2.02539462015810        1.18152879740108       -0.01491653877463
C           -2.04486791274852        2.59500750413789       -0.00242399151329
N           -2.08391259911357        3.74247178692725        0.01677719749092
C           -3.29162521156853        0.49976972598761       -0.01719878243773
N           -4.40060225645944        1.29596741558090       -0.06564512373535
H           -4.30691069444045        2.28985194678325        0.05371285768707
H           -5.30922134735261        0.88818336688169        0.06144441630616
C           -3.49302393509424       -0.87772457968890       -0.00859524841915
C           -2.62404965666200       -1.96483980522429       -0.00525182134188
H           -3.10929536471697       -2.93366162728961        0.00125528329438
H           -4.54180466489920       -1.15640596958324       -0.00776099717957
