31
 energy: -55.381708905464 gnorm: 0.000533120143 xtb: 6.6.1 (8d0f1dd)
N            5.37756792450367        0.55257900089798       -0.01680575675720
C            4.23190503788800        0.46552958099649       -0.00692130966729
C            2.82044750362431        0.35824016616398        0.00113529632522
C            2.18540572225910        1.62603117873918        0.00555457567411
C            0.83938208620309        1.93018023395184        0.00658093409896
C            0.47259688532582        3.29582617114930        0.01081457598449
N            0.16925361623269        4.40249855055798        0.01421722646500
C           -0.19284535529718        0.98335209608052        0.00353071259359
C           -0.13289227786039       -0.51163803660543        0.00354916543409
C            0.93899591782343       -1.35684670237849        0.00297506506697
C            0.70067575001812       -2.74485690118110        0.00169929938090
N            0.49341622689654       -3.87710327092277       -0.00055002635558
C            2.32981346732273       -0.95256255723164        0.00225229422097
N            3.23454065401265       -1.97128741596941        0.01642845001419
H            4.21838461212498       -1.76757852843244       -0.01746916147933
H            2.93341072674460       -2.92827200446676       -0.03129607771851
C           -1.57229843715305       -0.54849570964893        0.00102950695177
C           -1.58057513294050        0.94367279523935       -0.00021421221971
C           -2.62463483267899        1.87571280546928       -0.00560418601433
C           -3.94629810297319        1.54806612341028       -0.01001875108368
C           -4.52932455193914        0.24345880134578       -0.00828397163810
C           -3.99263985438681       -0.99961337383304       -0.00280549178672
C           -2.60976753040837       -1.44283038078178        0.00160209197616
N           -2.43854082893581       -2.78180099915279        0.00469577608871
H           -3.24020937788325       -3.38703562540048        0.01109569643730
H           -1.52487642785670       -3.20279947614907        0.01052048585333
H           -4.69963115163500       -1.82146326569551       -0.00224795540727
H           -5.61370351620578        0.26457231007643       -0.01156007847877
H           -4.65878591777812        2.36141509822799       -0.01483097984987
H           -2.34281722738718        2.92101259225702       -0.00660949134775
H            2.86985187213277        2.46607798788487        0.00649254753604
