31
 energy: -58.603822881782 gnorm: 0.000943558407 xtb: 6.6.1 (8d0f1dd)
N            4.98110022422032        1.73090653184540       -0.11247130174252
C            4.07148256038551        1.02101262396222       -0.07447772966304
C            2.96527396305361        0.16378613234328       -0.03164574984773
C            1.70756735714127        0.79838040491886       -0.02926412901085
N            1.65452839815834        2.14193126881115       -0.06829246689174
H            2.50759237866107        2.67619108550264       -0.09315985148489
H            0.77573309578069        2.63288712724607       -0.05013148189735
C            0.50841193504434        0.05495714402433        0.00748168961109
C            0.34107951485513       -1.42387712309926        0.01554494084465
C           -1.08173249387725       -1.23655329777635        0.01220408188775
N           -2.10685254401572       -2.00387726312722        0.00219524400556
C           -3.37162671040354       -1.48494060585805       -0.01809563250969
N           -4.30990128558830       -2.45220677639257       -0.07425431429970
H           -4.01384381107187       -3.41117587570433       -0.07488977783682
H           -5.28205436426967       -2.20448256377701       -0.07543771249657
N           -3.83393555326586       -0.26033495430749        0.00779603109058
C           -3.23399879845354        0.93158630690573        0.04215087204096
N           -4.12292896577720        1.95522927105958        0.10966427158803
H           -3.81831640905321        2.91115836493338        0.05910454394573
H           -5.10036961297125        1.73396872491187        0.05467753369856
C           -1.85297658273368        1.25171931962462        0.02588809113906
C           -1.48980758989930        2.60257605528871        0.03197285917103
N           -1.18286969227009        3.71465370271902        0.03084922727853
C           -0.86850501269577        0.25513674511406        0.00856677367163
C            1.22762282114036       -2.44584018269664        0.00074267414637
N            2.56543665161493       -2.35115174389043        0.02129117724726
C            3.28826059253856       -1.25430317503350        0.02738608078837
N            4.61186870460256       -1.52235189357761        0.09296408106108
H            4.88377433219405       -2.48941640029220        0.12282729640288
H            5.30464499941419       -0.79383129831635        0.08795933786674
H            0.86593887714144       -3.46795889106171       -0.01697574520489
