29
 energy: -49.543682546144 gnorm: 0.000938836127 xtb: 6.6.1 (8d0f1dd)
N            4.67263827275667        0.41168093697989        0.02860806167947
C            3.31363684764439        0.28905329992070        0.01242157468467
N            2.96494714465120       -0.99921962058391        0.01387989649465
C            1.73202758460927       -1.50507890374913        0.03153432805721
N            1.65184914310838       -2.85224489079841        0.04378379996994
H            2.49158660759817       -3.39982554171776        0.00064485799583
H            0.74374378361819       -3.28169875290814        0.01510358689293
C            0.54192058473620       -0.77734455906162        0.03428263461593
C            0.30650110810524        0.68247827030140        0.03637473640853
C           -1.07662770394041        0.49455159102599        0.01560154445115
N           -2.14934245583351        1.23928397647424        0.00267194342292
C           -3.35751399132200        0.66274951228376       -0.02750168915491
N           -4.39023924029934        1.57435470209111       -0.11508366795461
H           -4.13779304083037        2.52275935709737        0.10979514456588
H           -5.30371311027051        1.27833143274595        0.18465049274993
C           -3.70978522961312       -0.70508099928615       -0.03566558890253
C           -2.95135733383001       -1.86531687276494       -0.02378804343982
N           -1.62767579023212       -2.06212131907571       -0.00179210290644
C           -0.83541425654433       -1.02954949598806        0.01388216673548
H           -3.50672124590188       -2.79817739931030       -0.03286039963740
H           -4.78241178696314       -0.87268355816025       -0.05893070624301
C            1.22596269451259        1.73309572843042        0.03381378829343
N            0.73816689674598        2.99850000348584        0.07372733247982
H           -0.25577065267546        3.11053870021811       -0.02880352159577
H            1.34141330637731        3.78540314386664       -0.08193976976345
C            2.60391766655854        1.50457809442087        0.01774773240746
H            3.22693151787859        2.39187795694816        0.01320438415612
H            5.11659113784478        1.29742951322644       -0.12687033958416
H            5.20660809951069       -0.43247348991249       -0.07522054177920
