31
 energy: -53.790651985542 gnorm: 0.000899604065 xtb: 6.6.1 (8d0f1dd)
N            2.44512701868520        3.19792571475827       -0.00657602709417
C            2.33776397957840        2.05010720849892       -0.02154158164374
C            2.16670824850939        0.65697489286474       -0.02112714773899
C            0.88198540926575        0.14603279422868       -0.00117746500884
C            0.44214192771655       -1.32465509702212        0.00432560519067
N            1.05731172461928       -2.46813877287268        0.01040945382458
C            2.38703908556288       -2.54156864181354        0.00722376097304
C            3.37211030092331       -1.56333943123639       -0.01200225575385
C            3.33058560366801       -0.16289664592622       -0.03379903142324
N            4.54206389247377        0.48746041658639       -0.13002421499673
H            4.57124775569288        1.47532856053238        0.05931113205143
H            5.37524189381176       -0.03387525077635        0.07966587851525
H            4.38269736470000       -1.96086753116797       -0.01757990325794
H            2.74228064175366       -3.56736915504519        0.02164348651692
C           -0.89092044588250       -0.90173696533119        0.00749077524926
C           -0.46848269553705        0.51760451271458        0.00579426359935
C           -1.29217829093132        1.65201160832000        0.00709696238220
N           -0.75004848278994        2.89071191025172        0.03787552972609
H           -1.34291344283181        3.69913373765488       -0.01772409202889
H            0.24614648310442        3.02432811668343        0.00232940795373
C           -2.68789781012239        1.53965314008947       -0.00642226768328
C           -3.53055022342552        0.41555802404030       -0.01994743559422
N           -4.86583613016814        0.68784172229495       -0.08010369324015
H           -5.21364367267900        1.61652560688525        0.07145995529188
H           -5.49136104196993       -0.09182905830614        0.01974892079960
N           -3.32429170888390       -0.90399789092930       -0.00891071634895
C           -2.14510398245389       -1.51703885629610        0.00362308449413
N           -2.17565377658096       -2.86508954648113        0.02611453909458
H           -1.30428955022843       -3.36617820852267       -0.00213546146135
H           -3.05720682741759       -3.34197736703247       -0.02600197988810
H           -3.21784698046307        2.48620010415569       -0.01294146450078
