25
 energy: -48.247727797642 gnorm: 0.000641366266 xtb: 6.6.1 (8d0f1dd)
N            5.73770498771713        0.73123480663174       -0.00146728492245
C            4.59659574731691        0.62392600782966       -0.00019985344066
C            3.18177644939597        0.49238314443919       -0.00014822144446
C            2.50103044594741        1.72838227664640        0.00041857029282
N            1.20764339403677        2.01034666753550        0.00091845809496
C            0.29379072250096        1.09171993401527        0.00114075777095
C            0.32032407075346       -0.42780601959526        0.00075185161072
C            1.40064750023906       -1.28618005552267       -0.00010212933829
C            1.16119720271229       -2.68251351058942       -0.00174681950581
N            0.94218718633207       -3.80768776077267        0.00063598622642
C            2.72945207062165       -0.83208931765239       -0.00041637884696
H            3.49852576993727       -1.59604567780891       -0.00099756207969
C           -1.08624973819521       -0.43534548980990        0.00141755596866
C           -1.12000272714698        1.05259323514636        0.00182483186259
C           -2.21539704779161        1.88606967179819        0.00412809127714
N           -3.47894622558768        1.50658098005455        0.00458618777869
C           -3.94930605770777        0.24842610180984        0.00328072469936
N           -5.28867059347062        0.21303612948341        0.00176331533604
H           -5.75411619981197       -0.67864263815502        0.00114430043657
H           -5.80250933877849        1.07765371561092        0.00152145537928
N           -3.42263062472447       -0.99473562696023        0.00398369632256
C           -2.14918796816461       -1.31854567984428        0.00326419499359
H           -1.95942122199255       -2.38816622695086        0.00424440765045
H           -2.07320368814968        2.96185747055322        0.00562193592148
H            3.12988693261074        2.61267288370741        0.00047010985609
