32
 energy: -58.319587544426 gnorm: 0.000878631738 xtb: 6.6.1 (8d0f1dd)
N           -6.11227844295569       -1.28191906171887       -0.00984608482286
C           -5.00721753728779       -0.96448943360907        0.00544944926900
C           -3.64842419589233       -0.57899639455702        0.01052997408172
C           -2.77171776031428       -1.68927562604971       -0.03756241538805
N           -1.46017372390540       -1.77527903969368       -0.04232181678561
C           -0.70304464543393       -0.70478243810652       -0.02743038452873
C           -0.97501394762700        0.79122810739521       -0.01052897372782
C           -2.15179003718714        1.45909921691625        0.04430496623958
C           -3.41602858661338        0.81461283619458        0.06228992102811
N           -4.50484480277152        1.62990460876533        0.16747508917401
H           -4.39622898732444        2.62387549219910        0.08173761692882
H           -5.43002028559962        1.24245634149836        0.09670267640469
H           -2.16691917459556        2.54336378000765        0.09114105157289
C            0.43249106940235        1.00651409204830       -0.01416058528639
C            0.66747688745020       -0.44915986265794       -0.01840514808732
C            1.84252586574068       -1.20842469780000       -0.02430350784863
N            1.71489440721800       -2.54769872333392       -0.05376729859137
H            2.52166278281074       -3.14798507187579       -0.05261630603141
H            0.78633122118949       -2.93582026518382       -0.05975969454296
C            3.11491914910631       -0.60051997584047        0.00320886102695
C            4.21096247424114       -1.47131672088773        0.00915468524797
N            5.10467741330748       -2.20114339483518        0.01171047360886
C            3.42161392953153        0.80865940704915        0.04429489621538
N            4.74179682555004        1.09789933419390        0.12843154167818
H            5.43848001679350        0.37446862200497        0.16475209802851
H            5.00841794670801        2.06553815395616        0.15872606424014
N            2.68477697138643        1.89729691130655       -0.00493597202176
C            1.35033326854253        2.03742845891389       -0.04277883185346
N            0.94538201731123        3.33678648397337       -0.06503807828195
H           -0.00542985553076        3.55059323848400       -0.30434201176400
H            1.65391639417769        4.03081950182830       -0.22894506153869
H           -3.26497079132862       -2.65628061878521       -0.07022520374386
