28
 energy: -52.216112547443 gnorm: 0.000792952948 xtb: 6.6.1 (8d0f1dd)
N           -4.54407091713748       -3.03733857138425        0.00098413141488
C           -3.68091732348411       -2.28099515107087        0.00000121131303
C           -2.60570176743767       -1.36425128370632        0.00035272973767
C           -1.30774272432611       -1.92944626024037        0.00024427331914
C           -0.17059498214466       -1.19328869501954        0.00016924141901
C            0.11059942270027        0.26295036407297        0.00022205094937
C           -0.77279427475373        1.35211745780019        0.00036408407798
N           -0.31539853116044        2.60897843714918        0.00028838625636
H           -0.96703098413400        3.37878468200719        0.00031583300499
H            0.67168398088959        2.81660814505637        0.00019605999038
C           -2.19265327918788        1.15811485107025        0.00048898661444
C           -2.96088349806093        2.34317123324389       -0.00076711480721
N           -3.57046079980434        3.31767860649703        0.00181927328823
C           -2.95062561802577       -0.01545422610947        0.00042745660916
H           -4.02202016774944        0.16625353318786        0.00037151746740
C            1.49370379934054        0.01702653619191        0.00004329009471
C            1.24175610132716       -1.46097529361618       -0.00000582051077
C            2.08826251828744       -2.51437620581995       -0.00007354794164
C            3.50543025900949       -2.37268368896477       -0.00008974437418
N            4.26432763772781       -1.31485629520489       -0.00020291925557
C            3.96434276764676       -0.02420675979957       -0.00027826306345
C            2.73364772536512        0.65316385490860       -0.00011095716799
C            2.79030245287013        2.06252008646226        0.00018044357865
N            2.81005967649286        3.21159487894507       -0.00061986813897
H            4.84984320642164        0.60514312525401       -0.00044298828465
H            4.07420177904203       -3.29813884199456        0.00004128804474
H            1.68988195125292       -3.52055587951794       -0.00004334995997
H           -1.23782230436716       -3.00982883759811        0.00011783622424
