29
 energy: -55.154862280348 gnorm: 0.000442303074 xtb: 6.6.1 (8d0f1dd)
N            1.93321291166129        3.76587521079491       -0.00182841277587
C            2.19571189730601        2.64627278166815       -0.00203804780303
C            2.44962520175580        1.26075496189582       -0.00223984397482
C            1.39591468803532        0.37076269655086       -0.00208718454528
C            1.49354148511121       -1.15937284147821       -0.00225689864635
N            2.47910503394869       -2.00437200818860       -0.00277455827397
C            3.74505572912772       -1.58316910301120       -0.00321547185051
N            4.30876246582039       -0.39241907337090       -0.00306611411612
C            3.79720142741375        0.81590958029612       -0.00260724792065
H            4.55329293029670        1.59766189001453       -0.00256608949183
H            4.46433788816016       -2.39775163955089       -0.00374781348089
C            0.09426025835723       -1.22155204035007       -0.00191410411252
C           -0.00299527314013        0.24686453316068       -0.00178646460218
C           -1.14703605683281        1.05798841172478       -0.00132020617926
N           -1.02423166225992        2.39623216580485       -0.00075981205679
H           -1.84518777068940        2.97899713654472       -0.00049559236869
H           -0.11794323029888        2.83642970442151       -0.00082492923750
C           -2.44694620289800        0.48818852850963       -0.00144966594813
C           -3.50125270354397        1.41608198682971       -0.00081455604994
N           -4.35932894469685        2.18554466530041       -0.00035158350938
C           -2.85531035955204       -0.88826346571081       -0.00231357073368
N           -2.19223459488699       -2.03706421177553       -0.00223840809664
C           -0.87747800013785       -2.22987688738005       -0.00181001694368
N           -0.46010955506578       -3.50547107491707       -0.00121777012292
H           -1.13348666761622       -4.25065030043335       -0.00188244688810
H            0.52858738986843       -3.69300334531199       -0.00170244728449
N           -4.18957768137850       -1.09673144692560       -0.00331852230911
H           -4.84717465653141       -0.33617725138226       -0.00325513765150
H           -4.51014353113396       -2.04891124663016       -0.00367590422617
