27
 energy: -46.894376770385 gnorm: 0.000291846983 xtb: 6.6.1 (8d0f1dd)
N           -4.37272228249993       -2.34339536708901        0.00697398270711
C           -3.47462614090780       -1.62198819005437        0.00499118853638
C           -2.38570783767185       -0.73276288020222        0.00227280878586
C           -1.12267084886118       -1.34764505150952        0.00153502690214
C            0.06387678582678       -0.67685468967859       -0.00092929665575
C            0.35785732263642        0.76550203000950       -0.00338789684367
C           -0.48851033523909        1.88699503050150       -0.00393400232992
N            0.11225564375765        3.09248716682745       -0.00601074840823
H            1.11861208990108        3.11877954664122       -0.00834483680776
H           -0.41482937559618        3.94702944498288       -0.00824256043352
C           -1.87976839533468        1.78679767301621       -0.00211946688827
C           -2.71598559652091        0.66168696993506        0.00062830875333
N           -4.04492473134504        0.93184645021892        0.00183557210740
H           -4.37505585053926        1.87970797160506        0.00102628214857
H           -4.71498680927858        0.18150842981366        0.00389935833767
H           -2.40736334881797        2.73502268806533       -0.00290354882925
C            1.73140246080138        0.54009555076550       -0.00531191645421
N            2.82711924926330        1.26716829766367       -0.00840354788530
C            4.00496939387888        0.67020074261225       -0.00970824480437
C            4.34367326574675       -0.70140156404398       -0.00823917883557
C            3.56629789652492       -1.84462292091766       -0.00511021832882
N            2.22472008454720       -2.00527263506575       -0.00257089166280
C            1.46308200419595       -0.96978234393081       -0.00274699379758
H            4.08953133737159       -2.79447877985614       -0.00459440530937
H            5.41243702809841       -0.88577015424474       -0.00990411203254
H            4.83629729801395        1.36741161641246       -0.01234638096657
H           -1.10691750565179       -2.43020332037791        0.00300550979494
