29
 energy: -51.943218428797 gnorm: 0.000850884997 xtb: 6.6.1 (8d0f1dd)
N           -4.97935991842494       -1.58159717518064       -0.00052875457012
C           -4.00898412876950       -0.96301099870349        0.00201748644177
C           -2.83292786599745       -0.18781071704897        0.00188980208904
C           -1.63528202748071       -0.93070536630012        0.00110326548478
C           -0.39145403023769       -0.38269359027320        0.00170220266305
C            0.06026563225297        1.03238754805153        0.00327696013890
C           -0.67360497058494        2.20263412658513        0.00450834075065
C           -2.04923574603154        2.26271752184298        0.00448089094502
C           -3.01733044683282        1.22509817533048        0.00335495901814
N           -4.30087649328580        1.64826322437588        0.00379974134112
H           -5.05675464070121        0.98295493690894        0.00308130682314
H           -4.51554323698288        2.62964113330283        0.00481070308452
H           -2.47909919644300        3.25707159638242        0.00552231569832
H           -0.12956072888981        3.13892113203615        0.00549513568421
C            1.40422324870375        0.62045756581878        0.00284974087866
C            0.97133850056066       -0.81135424307875        0.00133914594878
C            1.70361849133767       -1.96613765275488        0.00019752081426
C            1.01160974916121       -3.20237637711601       -0.00102473114115
N            0.44872765009776       -4.20117405908651       -0.00240949322799
C            3.12330696432825       -2.01396695368317        0.00015606781624
C            4.02546157234481       -0.97134585072095        0.00126558777452
C            3.86229147240756        0.41946426900426        0.00281122512026
C            2.68000333333505        1.16435485683415        0.00357958441359
C            2.78512715094082        2.57694773218635        0.00676280278221
N            2.85393821948305        3.72171601729125        0.00456561332245
H            4.77740293440802        0.99811731156292        0.00367397703071
H            5.06341889085561       -1.28460727925399        0.00101360107670
H            3.54383006186534       -3.01169926059151       -0.00087451480106
H           -1.73477104292075       -2.00988091752123        0.00012275129930
