32
 energy: -59.114360517473 gnorm: 0.000586934719 xtb: 6.6.1 (8d0f1dd)
N           -6.19857525503038       -0.63838551048750        0.01433874534185
C           -5.05034376398075       -0.62507856976512        0.00552566397908
C           -3.63259010166242       -0.62024781124634       -0.00065249261693
C           -3.09068065475076       -1.89733533131071        0.00093421481318
C           -1.74785307464003       -2.30285472514247       -0.00121369305353
C           -0.69852156850989       -1.44363584836434       -0.00249929631341
C            0.72698486048836       -1.49827180269935       -0.00157537249010
C            0.78022598855107       -0.01409560669214       -0.00041893819088
C            1.91842314447902        0.80890611693700        0.00051635482958
N            1.80152631929035        2.14772626219833        0.00021100393793
H            2.63057675810005        2.71946937064429        0.00071817832895
H            0.90306625051210        2.60073497063432        0.00000206388774
C            3.22731592718366        0.25883579526013        0.00151685812142
C            4.26843187724241        1.19858933425389        0.00240957214105
N            5.12202828426647        1.97468602932115        0.00377248961618
C            3.65867010857174       -1.11439660114689        0.00186674511589
N            3.01148952445511       -2.27149260733857        0.00050502371366
C            1.69626488315035       -2.45581726932394       -0.00127630579887
H            1.40884502277261       -3.50275889454029       -0.00219461982800
N            4.99635482088019       -1.30317670529558        0.00386736496506
H            5.64448560687736       -0.53453159405475        0.00469484626472
H            5.32547569269958       -2.25287280109974        0.00388597385219
C           -0.62034523585041        0.05422670914288       -0.00187837212516
C           -1.66149535094254        0.98545054832626       -0.00282974163213
C           -1.32664696225886        2.35108053930778        0.00096500322515
N           -1.04798383382206        3.46880595334817        0.00722359289317
C           -3.04199503393192        0.68431109034474       -0.00561889375126
N           -3.90757941728489        1.73565783339590       -0.02400481813126
H           -4.89955185334731        1.57940168293585        0.00879090247780
H           -3.56086661798961        2.67822629064564        0.00587580087149
H           -1.55027002416733       -3.36627356670643       -0.00082609070401
H           -3.82377059295125       -2.69551827438217        0.00469235115937
