27
 energy: -42.086177686690 gnorm: 0.000775507884 xtb: 6.6.1 (8d0f1dd)
N            4.00681465999364        1.64673382359738       -0.05469426251916
C            3.00712923002306        0.68155192808824       -0.00660178102480
C            1.68876317761866        1.14506898499965        0.01356340379197
C            0.57043822265185        0.34768283361585       -0.00954732312261
C            0.44702503156052       -1.14580758158667       -0.01382317071531
C            1.39253126706167       -2.11738021977090       -0.03819953242632
C            2.77778373705262       -1.86207434615015       -0.06979620993525
C            3.44663203990882       -0.65927016227153       -0.05443152154511
H            4.52884695699879       -0.74761111236252       -0.07956401563834
H            3.40940606722652       -2.74113331636687       -0.10222887976937
H            1.07825017561757       -3.15368248645806       -0.03583606426346
C           -0.97632891040940       -1.01822363576454        0.02035452999859
C           -0.83239563623493        0.46657490104316        0.01719145646472
C           -1.83008538450368        1.42763592040078       -0.01816104389020
N           -1.50926099247754        2.74839761577383       -0.04673858330825
H           -0.55862566959553        3.01179943076305       -0.23336832941568
H           -2.22992765915994        3.42597476797094       -0.22522786003441
C           -3.19981320517511        1.07324794820476        0.02348987078247
C           -3.78914896372262       -0.18175599426227        0.08986057386886
N           -3.36071060563807       -1.43228138739601        0.07248189690582
C           -2.07964462871961       -1.81531972673234        0.01886098899704
H           -1.95547019299974       -2.89456228575728       -0.01801584387309
H           -4.87702695630130       -0.15186572571812        0.15201114395807
H           -3.88915485189868        1.90991572286514        0.01794613963820
H            1.56088565131950        2.22255955155716        0.05440813907092
H            4.93065241676132        1.35118033548474        0.21645114781002
H            3.75741615934159        2.56629515573266        0.27158958089489
