29
 energy: -45.534878460056 gnorm: 0.000528206510 xtb: 6.6.1 (8d0f1dd)
N           -4.87339769824793       -0.07264753362337       -0.08057335535094
C           -3.50644752104030        0.07166690476461       -0.03252632400330
C           -3.05008789046242        1.39149113580161       -0.04222730185723
C           -1.74014715358830        1.88861623291381       -0.04189287411160
C           -0.62364346405415        1.11219703258278       -0.03866596593937
C           -0.47388375084766       -0.35754302398528       -0.04310534422576
C           -1.43204708613553       -1.38763962751784       -0.03725673573943
N           -0.94463834729800       -2.65378569766724       -0.07040952335671
H           -1.54565015405426       -3.44195426656668        0.09258406738531
H            0.05034871902936       -2.75945281657565        0.03750761935065
C           -2.79779308545258       -1.15340882585694       -0.02082572621051
H           -3.42418130631399       -2.03935361046445       -0.00902384981453
C            0.91040017840127       -0.25809999612987       -0.01770385755759
N            1.91705744388429       -1.11004881667304       -0.01171732622760
C            3.17371693861826       -0.71134490115299        0.02475687924004
N            4.08916342695636       -1.74952367272335        0.11108995260606
H            5.01383339991057       -1.57941894825134       -0.24896135501312
H            3.70575743822022       -2.65515326138482       -0.10866916757109
C            3.73056302184382        0.60510342345707        0.04702941221991
C            3.15348909590989        1.84550502316037        0.03669219891809
C            1.77414149338572        2.19176249879101        0.00681013389815
C            0.80338681377647        1.25707624507816       -0.01384183707823
H            1.52471702969038        3.24625570424799        0.00355396677453
H            3.83993074710574        2.68409326259734        0.05513701970016
H            4.81578285226035        0.59876491486044        0.07870640986850
H           -1.62605643127936        2.96588226548351       -0.03670397523485
H           -3.83364742151415        2.14040480930760       -0.04776718899190
H           -5.27313441508576       -0.96764281944253        0.14206033795765
H           -5.44569754051845        0.73215189046915        0.10753880506465
