26
 energy: -42.362105638610 gnorm: 0.000400138849 xtb: 6.6.1 (8d0f1dd)
N           -4.92988500449588       -0.36311098279758       -0.07024717995620
C           -3.56377634354566       -0.26189158729458       -0.02453563464288
C           -3.09995401334331        1.11571714536795       -0.04279449337976
C           -1.83892322668965        1.60902267782078       -0.03493143887977
C           -0.66778053536684        0.82729154884725       -0.01134681230348
C           -0.53518312405151       -0.64813569479279       -0.00568645627022
C           -1.44372934275071       -1.64184187340482       -0.00886912310516
C           -2.85170439393284       -1.43680175866350       -0.01117396696293
H           -3.44820819154441       -2.34172160362612       -0.00182451293228
H           -1.10060056938083       -2.66783414334899       -0.00058604029698
C            0.90736491804398       -0.49183155466777        0.00966372630826
N            1.91514008295768       -1.27567211586615        0.01701352789900
C            3.18854914763962       -0.74628027139417        0.02761708560274
N            4.12835283626418       -1.73704063362881        0.08547009358328
H            3.79927998647120       -2.67197663099255       -0.08116601170644
H            5.08885979022051       -1.52616431770960       -0.11779379080312
C            3.59055238149219        0.57576587628367        0.02679780285270
C            2.85010074646061        1.78840936242603        0.02243995976120
N            1.56757038683271        2.02193104536220        0.01111240330207
C            0.70652197047160        1.00474502322252        0.00440072025866
H            3.45289810944203        2.69140780416974        0.02584675327736
H            4.66679312359223        0.71467836011072        0.03456798299469
H           -1.70503416724915        2.68320277975706       -0.04736718735089
H           -3.90760554820266        1.83812890275675       -0.06635711426682
H           -5.35536837531119       -1.26024260261427        0.08646069766416
H           -5.49117101372385        0.44748285537698        0.12353335615281
