25
 energy: -43.453049917893 gnorm: 0.000594183152 xtb: 6.6.1 (8d0f1dd)
N           -1.84357884416761       -3.28105833251859       -0.00253571487420
C           -1.68271414508707       -2.14183845045404        0.00154391612339
C           -1.54175827459716       -0.74523152688901        0.00121770300299
C           -0.33418126960531       -0.14369993455789        0.00173050257346
C            0.05828679235401        1.27083885216449        0.00277632794684
N           -0.66620467199213        2.40705294008629        0.00279102170462
C           -1.95192637139793        2.37837038118089        0.00221773681403
N           -2.88056983918215        1.38314556812077        0.00245632444297
C           -2.77198216917349        0.09825579946278        0.00232530044379
N           -3.92779099145454       -0.59387969950419        0.00353623708205
H           -4.78934150478292       -0.07528590632953        0.00440882556996
H           -3.94132837541916       -1.59960029388909        0.00313576323544
H           -2.42860453372598        3.35474597350810        0.00183107165026
C            1.40915240957353        0.93159130416154        0.00295183958701
C            1.09807682378971       -0.50377832971678        0.00187750039557
C            1.84226402864828       -1.61514061484849        0.00134276789963
C            3.28540305381576       -1.58337146760305        0.00171258302207
C            4.11280057909743       -0.51476405202249        0.00270398108003
C            3.85311664561550        0.90735760431246        0.00366513143838
C            2.67322768750536        1.57017991858850        0.00379339920485
H            2.67056667012776        2.65185106595255        0.00458988237419
H            4.75205015183477        1.51119354771047        0.00437285682372
H            5.17184929037835       -0.74638343906120        0.00281533447194
H            3.75260327164639       -2.56012677508439        0.00109533887897
H            1.36597149219856       -2.58610535107006        0.00051456100805
