30
 energy: -54.863324291969 gnorm: 0.000814177871 xtb: 6.6.1 (8d0f1dd)
N           -6.22973473208460       -0.20747438237326        0.00713658649957
C           -5.08099695174425       -0.20732046132618       -0.00880285760214
C           -3.66613920215998       -0.20635262067004       -0.01982610459602
C           -3.12455435400372       -1.49744676362605       -0.07768444455483
N           -1.87156840436084       -1.93614268089244       -0.06904724356531
C           -0.86216047312781       -1.12615180793856       -0.04528248542497
C           -0.71684374969072        0.38480554793552       -0.02638149621518
C           -1.68093452020909        1.35211622740287        0.03559340092712
C           -3.06109687487992        1.08392180058897        0.04107248452928
N           -3.89992076668394        2.16063809569102        0.06881292907996
H           -4.88916092609912        2.02169697580567        0.18339510678180
H           -3.52847278242007        3.07533016036514        0.24972435648291
H           -1.39896784925599        2.39868946856381        0.09477158112437
C            0.68491747977892        0.22656665589418       -0.01595554113891
C            0.54795453636047       -1.25089698220624       -0.02269850509553
C            1.49464486559223       -2.24242140324537       -0.04558097332120
N            2.80606573184327       -2.09296609129097        0.00709424881361
C            3.50077023974038       -0.95440550083439        0.05566535702524
N            4.82179184603965       -1.20452812502249        0.18282690368607
H            5.50455591283323       -0.46677970936136        0.21135793288858
H            5.10622286504981       -2.16804444869404        0.21687424890368
C            3.13356656135396        0.42566545738231       -0.02975111407345
C            4.19761270952529        1.33540826682180       -0.06274365834328
N            5.06215616169962        2.09933024106580       -0.10078255805746
C            1.83107114583426        1.00602231828075       -0.05816228623472
N            1.73293968040804        2.35455812164489       -0.10021119897019
H            2.55979872756355        2.91851756658886       -0.20225943513296
H            0.83264248523003        2.78178779705316       -0.21029609469335
H            1.17127683813384       -3.27667603867427       -0.10311027777266
H           -3.85086184246654       -2.30298776302894       -0.12355438445017
