33
 energy: -58.827552177610 gnorm: 0.000893610791 xtb: 6.6.1 (8d0f1dd)
N           -5.63443743435794       -0.74659017447111       -0.00206663087347
C           -4.49967410338343       -0.56650934713472       -0.00732817592820
C           -3.10141213018353       -0.34643433299589       -0.00699286029104
C           -2.36933843497830       -1.55155811729318       -0.00012265804530
C           -0.99752525682440       -1.78065074135563        0.00226737813432
C           -0.59318263270792       -3.12951626599578        0.00601367814917
N           -0.23885085607452       -4.22441744865341        0.00821642148756
C           -0.02194779177144       -0.78058699118201        0.00291480622310
C           -0.24311260201154        0.71288571555729        0.00506248035107
C            1.16841878705038        0.89865142407250        0.01044600254441
C            1.35623446382547       -0.57208743972788        0.00659776128392
C            2.56766027441965       -1.30711045294891        0.00579267673537
N            2.51823781003837       -2.65500434274519        0.00120847007460
H            3.36706730782840       -3.19218287555113        0.00407472766771
H            1.64240016496719       -3.15125659584585        0.00257646708128
C            3.81519248489264       -0.69367226327192        0.00619582079355
C            4.20123072969483        0.66426180174207        0.00960053578216
N            5.54781248267526        0.86875534970831        0.02957472685943
H            5.91582755938008        1.80001196082777       -0.04165032132573
H            6.18539165378293        0.09828828258412       -0.05561273028015
C            3.42261518245174        1.83235302794092        0.01424214591603
C            2.03993385618454        1.95235400037880        0.01513569711818
H            1.62486454539073        2.95188638786047        0.01767675713901
H            3.98389247340434        2.75770853215703        0.01733990986633
H            4.65109950086629       -1.38614591713083        0.00503157460947
C           -1.36392868089484        1.49063025357686       -0.00150543336830
C           -1.18187338659851        2.89289940874475        0.00475360399945
N           -1.04896334239438        4.03372782129212        0.01381760938957
C           -2.71604906356083        1.00521736707095       -0.01212145551800
N           -3.69479625170672        1.95266651785233       -0.04588981023898
H           -4.66163829883867        1.68168121918667       -0.00360187587989
H           -3.45703341543635        2.92711427180594        0.01161545083568
H           -2.98865262902952       -2.44175044035537        0.00288354630766
