24
 energy: -43.730269693498 gnorm: 0.000449805468 xtb: 6.6.1 (8d0f1dd)
N           -5.85677140941510       -0.12078739591055        0.00121212716739
C           -4.71152139277177       -0.06374413185884        0.00090265350730
C           -3.29398853699633        0.00935913238940        0.00092236189866
C           -2.66393398235690       -1.25574551022227        0.00104755656095
N           -1.38529378900627       -1.58764593798477        0.00093994022677
C           -0.43726033890199       -0.69837420321704        0.00071927234426
C           -0.41148085485174        0.81815115115828        0.00056328720565
C           -1.44359723541121        1.71378012041867        0.00058128814098
C           -2.78247323058202        1.31272121798570        0.00073859998707
H           -3.52594234668719        2.10112947017196        0.00070206925522
H           -1.23269145065959        2.77599887654690        0.00043282271631
C            1.00277249959689        0.77020149827306        0.00037253001623
C            0.97502379561945       -0.71719195594503        0.00052342183159
C            2.03525681924878       -1.59516219758241        0.00070979363068
N            3.31430807843331       -1.27260752519443        0.00048914643255
C            3.83616158835151       -0.03235663108497        0.00007912769917
N            5.17869689343809       -0.05947065406816       -0.00046678289864
H            5.68615253237435        0.80823913671470       -0.00072891927757
H            5.64934231561120       -0.94770326483789       -0.00052619898457
N            3.36450514525110        1.22670091777136        0.00020920461483
C            2.09814330543152        1.60127990612761        0.00036563761788
H            1.96197202052808        2.67923719304585        0.00047105398389
H            1.84702382615533       -2.66416589624208        0.00105152057777
H           -3.32903398979955       -2.11344070465442        0.00124401444592
