28
 energy: -51.416841916865 gnorm: 0.000558675341 xtb: 6.6.1 (8d0f1dd)
N           -4.91917235020785       -1.75604536351807        0.04551833179990
C           -4.05409821001723       -0.99696388423629        0.02682969871397
C           -2.98085789793371       -0.08813148575824        0.00393890391064
C           -3.37117883270052        1.27051336769903       -0.04474973954982
N           -2.75439820247701        2.42028049640783       -0.05843012596675
C           -1.42064014477729        2.59728449375710       -0.04036574014881
C           -0.47008147187156        1.63118415058960       -0.02947471450046
C            0.96464903944093        1.55344669582312       -0.01666871973833
C            0.85948462911902        0.05729018371374        0.00126000544675
C            1.89714341532146       -0.87626956371354       -0.00564624287431
C            1.58441265248038       -2.24397970437112       -0.00203870342603
N            1.31645857353165       -3.36456540591170        0.00743587203345
C            3.27172121248442       -0.52139332972654       -0.02281762259758
N            4.18913059352579       -1.51924455148435       -0.11707376473359
H            5.15855582524968       -1.26392819444970       -0.05606491583096
H            3.92039050979519       -2.48674958184781       -0.08707606149302
N            3.85373496688215        0.68298205443096        0.04824932100515
C            3.37328451001235        1.88735218697797        0.07299332411444
C            2.03836716592685        2.37295634222653        0.01322613989882
H            1.89699732878447        3.44516114956319        0.01118581682517
H            4.15047444880618        2.64336432506463        0.15143109165503
C           -0.53654761358409        0.14305581605587       -0.00385478137690
C           -1.67655055491031       -0.67234066003489        0.01955389995267
N           -1.57998531664024       -2.00705940710422        0.05505052168570
H           -2.41966581938464       -2.56520902505292        0.06837810314711
H           -0.68742831828977       -2.47538665184105        0.05459015410904
H           -1.12450696021318        3.64152330185412       -0.04221034931967
H           -4.45336964865314        1.39715954968665       -0.07313967864158
