31
 energy: -54.591385725894 gnorm: 0.000578952618 xtb: 6.6.1 (8d0f1dd)
N            3.30787451751214        3.78673974622407       -0.03013540788027
C            2.72352302877657        2.79383186210833       -0.02108900195709
C            2.00165848833136        1.58870530484039       -0.01091496556542
C            0.58921647163061        1.75288669174454       -0.00574175913792
C           -0.29647082458337        0.73818535424176       -0.00208266475469
C           -0.13779173497044       -0.72681167694896       -0.00164033515057
C            1.01799252603636       -1.51296426482106        0.00988511816721
N            0.87974200673472       -2.85675200666319        0.02126553939146
H           -0.03830247316115       -3.25924012047860        0.04020987792418
H            1.68656733652837       -3.45720709918944        0.04021513798187
C            2.32309210461089       -0.96547119940609        0.00838803768651
C            3.35010987517617       -1.92193995301559        0.02316492822623
N            4.17249273678602       -2.73106620599775        0.03659253119022
C            2.76138151653951        0.40155356005234       -0.00614390559489
N            4.10705759131110        0.56295312072967       -0.01503494623887
H            4.50054548918006        1.48884912997396       -0.01949911678077
H            4.72111803118847       -0.23328940699736       -0.00707119273873
C           -1.53102081624479       -0.91200997594458       -0.00608311387822
C           -1.73432936508115        0.56405231039360       -0.00082557957345
C           -2.85020631099102        1.31276704012573        0.01156459591591
C           -4.17282503865054        0.74101637547372        0.02002124212125
N           -5.20148588471548        1.62729498310322        0.09387808158866
H           -5.04840343171397        2.61358508240703       -0.00632208648826
H           -6.13526228588799        1.26233365575066        0.02972804983170
N           -4.55835372035097       -0.51206947694637       -0.01553139329129
C           -3.85820215350955       -1.64379814981218       -0.04215830358977
C           -2.49855995005680       -1.90408810141145       -0.03009051241368
H           -2.20084010581508       -2.94584847845178       -0.04825564263067
H           -4.51510933058236       -2.50917938632588       -0.07653484137931
H           -2.77807260776243        2.39317848087799        0.02128536670523
H            0.23011744333547        2.77456871176391       -0.00768484288695
