32
 energy: -53.502052986431 gnorm: 0.000624874369 xtb: 6.6.1 (8d0f1dd)
N            5.22259070757253        1.66816999315667        0.13120707726938
C            4.27223610200293        1.01648626306056        0.08330302143834
C            3.09433787096635        0.25938172606712        0.03372376191235
C            3.27312429530144       -1.12955224774918        0.03061108644085
N            2.48927653812125       -2.17774343812006       -0.02419736579991
C            1.13909898400508       -2.18327272361664       -0.05213144466112
N            0.62033179903541       -3.44107395122695       -0.09469617030826
H            1.27417306770840       -4.18523158040520       -0.26876884849726
H           -0.34273725802935       -3.57002634556866       -0.34479046001393
C            0.31584889026772       -1.07714470796349        0.00269578786090
C            0.64817217789672        0.37346309807732        0.00700238347712
C           -0.73841875039452        0.69253117056678       -0.00349113171895
C           -1.06742597167296       -0.76613716100211        0.00739051419229
C           -2.27246601397237       -1.40456635217358        0.05302219899132
C           -3.52246816589498       -0.76026353113337        0.06154286100145
N           -4.63319883550264       -1.58992785974713        0.04447954110097
H           -5.51093331762655       -1.18290882653584        0.32340431779843
H           -4.49406012516859       -2.53445537042553        0.36430746570397
C           -3.78036046935527        0.61235552687513        0.00887806531499
C           -2.96013343766950        1.73847382209655       -0.03937144800594
N           -3.60230918249187        2.96626918099728       -0.01579376459930
H           -3.07255600013797        3.76107020878871       -0.33375195488129
H           -4.57312796240584        2.97966886516346       -0.28216758977677
C           -1.55025626444663        1.78442610790193       -0.03152400371824
H           -1.10813582346411        2.77472654279450       -0.05345511928185
H           -4.84072022398423        0.85099880515328        0.00901234056825
H           -2.29177392511047       -2.48830404338856        0.09250489563312
C            1.86278046297435        1.01057188137981        0.01603647018350
N            1.95111533098154        2.36598239420057       -0.01679495846327
H            2.84975368224091        2.80048255268612        0.11211106947958
H            1.12341339494252        2.91285857849391        0.13039806099496
H            4.32142820138818       -1.42749843271200        0.07034097746620
