31
 energy: -49.779292718135 gnorm: 0.000522927766 xtb: 6.6.1 (8d0f1dd)
N           -2.38866728821471       -2.97708210226590       -0.20612057528675
C           -2.15558860046078       -1.85275954092247       -0.09869452489020
C           -1.88284315818072       -0.47806419478604       -0.00306036848599
C           -0.55769484081803       -0.06444318886707        0.03602263701597
C            0.00077777922210        1.34410903906560        0.05024136210100
C           -0.62698702639126        2.55051921463961        0.09310538583208
C           -2.01851094742869        2.72537490278901        0.10567307355403
C           -3.02332306532079        1.77999737854548        0.06903499678118
C           -3.01490887115254        0.37872090212841        0.01643197867808
N           -4.26038180505069       -0.23137898562502        0.05687943345592
H           -4.31133409295380       -1.19900686082713       -0.21911340669224
H           -5.04964110595535        0.33053208735433       -0.21533495828070
H           -4.02730143942710        2.19351609384711        0.08611839363406
H           -2.35707198485085        3.75326774885863        0.14576972204857
H           -0.03220721258252        3.45641061981977        0.13101087507794
C            1.30881128767450        0.80442727578242        0.02899975023464
C            0.75160634023372       -0.57478658495421        0.03356011241461
C            1.42110723485023       -1.80587414165757        0.06359235053780
N            0.72912187265546       -2.96457970444822        0.13951762954479
H            1.22486313919797       -3.83778881557859        0.10985421588131
H           -0.27472914846098       -2.98535615854744        0.08773440849440
C            2.82507187529241       -1.90366436928816        0.04243547459595
C            3.79801532333098       -0.91635230442005       -0.00926030240804
C            3.73914832275477        0.46292532542160       -0.04378568465311
C            2.60227932968455        1.29654673077004       -0.01920128842444
N            2.80686245004839        2.64745029239433       -0.00239146369066
H            2.02513706296360        3.24785859989983       -0.19336316052454
H            3.72155671694462        2.99586887127013       -0.23230484378267
H            4.68959085994376        0.98094337375130       -0.08863781578981
H            4.80926096984446       -1.30975504472945       -0.02982361458812
H            3.20117899000704       -2.92012597351957        0.06707341351525
