25
 energy: -48.240909862462 gnorm: 0.000495235416 xtb: 6.6.1 (8d0f1dd)
N            5.31147862593412        0.66419871687912        0.00274210840955
C            4.24117492210860        0.24465065554459        0.00219284688712
C            2.91193193057058       -0.22187524117429        0.00149514616712
C            1.90494671195870        0.78223937034590        0.00074629633396
N            2.21931730664502        2.07974638356157        0.00076316939032
H            3.18124278958744        2.38061809345022        0.00140227537749
H            1.47404705610450        2.75868223484658        0.00004002873214
C            0.54906132810950        0.42134183485884       -0.00018637656443
C           -0.09553726065263       -0.90941600409835       -0.00017575745672
C            0.44369243185470       -2.16067957631301        0.00081611362353
N            1.74973893983346       -2.46067050115029        0.00130996424089
C            2.75758074514255       -1.62884203048855        0.00139685067284
H            3.70977845131269       -2.15893797533655        0.00154547284707
H           -0.20527683140288       -3.03048064189990        0.00110219603466
C           -1.38617599853045       -0.28085828933279       -0.00106016750868
C           -0.68608425976197        1.06528049530623       -0.00106435995960
N           -1.11984749177950        2.30622511748610       -0.00169570887469
C           -2.40374067690066        2.58116925488751       -0.00252271102704
N           -3.50882962082774        1.82204556239443       -0.00280136125299
C           -3.67990049969992        0.54150323372680       -0.00245139734716
C           -2.71883538357317       -0.54161536583829       -0.00161402832705
C           -3.20607478296189       -1.86906410300970       -0.00128630960035
N           -3.60622523800857       -2.94343804742344       -0.00144247213784
H           -4.72366991130018        0.23576574770613       -0.00281212279133
H           -2.62876893476266        3.64328906077104       -0.00298451776904
