31
 energy: -54.594287357675 gnorm: 0.000793990924 xtb: 6.6.1 (8d0f1dd)
N           -4.54412002233608       -2.60698993283762        0.05319738847342
C           -3.65927485626483       -1.87049095510443        0.03380109288441
C           -2.54965788874919       -1.00607978315618        0.01331361117260
C           -1.26204010382682       -1.65876770471780        0.00047201651416
N           -1.24290710877380       -3.01196736660031       -0.00698195836184
H           -0.36663344069033       -3.49877690378859        0.00593787484973
H           -2.10290362748501       -3.53193591880450        0.02126149511184
C           -0.09084746419171       -0.93852227071746       -0.00935555247701
C            0.15880620928266        0.52164356478751       -0.00813667827500
C            1.54674478335042        0.30484913042555       -0.01401171392185
N            2.59781122225017        1.07694003165754       -0.00394393608437
C            3.83982553079089        0.59140043985396       -0.01208824582282
N            4.80101643726253        1.56602185507327       -0.06063934395571
H            5.75101692556915        1.33911774008043        0.17208198750623
H            4.49324812205060        2.50841467422867        0.10610634817216
C            4.29200406950506       -0.75273927771222       -0.02339030140503
C            3.61404651958609       -1.95087496571654       -0.02882019760506
C            2.22621462827892       -2.19488845522433       -0.02496324231238
C            1.31091836883633       -1.18996380725775       -0.01795614831700
H            1.91160257196560       -3.23219979077218       -0.02856987272731
H            4.23911514514635       -2.83550954852219       -0.03525681317824
H            5.37345387962887       -0.83672351291584       -0.03055443849180
C           -0.66430585038002        1.63544912155477       -0.01183651888358
N           -0.09227955194007        2.85317358313200       -0.01869837096775
H           -0.65209835058837        3.68865464882785       -0.03348294179616
H            0.91260467776855        2.90256323951489       -0.03538571149076
C           -2.08943177341455        1.51608754522272       -0.00470156928864
C           -2.80422584988526        2.72630342270512       -0.00976381301046
N           -3.35289035010498        3.73844719765013       -0.01438551556565
C           -2.85644336307857        0.34885268912430        0.00894485715479
H           -3.92613915256236        0.54387591570947        0.01782097589905
