31
 energy: -54.587964658939 gnorm: 0.000843428398 xtb: 6.6.1 (8d0f1dd)
N            5.26208719350520        1.01743512694874       -0.15083867514290
C            4.25062849254274        0.46820999653377       -0.10821199689196
C            3.00856714803774       -0.18966394739500       -0.05677698015581
C            3.10523995132187       -1.60556970013749       -0.02516086986862
C            2.18000346323585       -2.60183490868759        0.02019063372602
C            0.75366886354564       -2.50462192493658        0.03977912516244
N            0.05514213400499       -3.67857396163555        0.03325300616360
H           -0.92352929722840       -3.65165633404649        0.25711478052595
H            0.54891102932109       -4.52763155549365        0.24849105665897
C            0.10153392626832       -1.30084429293656        0.01770330551818
C            0.56191169765007        0.10726005223577        0.00478303551878
C            1.86771470545877        0.64221479496552       -0.03757822515903
N            2.04398668565113        1.97437008184250       -0.06898690110535
H            2.97782276728915        2.35090910717957       -0.09051453145249
H            1.26575163893485        2.61246613024664       -0.03472007650949
C           -0.75497125096330        0.57236813846839        0.02923594762667
C           -1.26055938474450       -0.84460354882758        0.02385654690708
C           -2.51311405476316       -1.33954041968818       -0.01412937401479
C           -3.69162557411064       -0.51753085494845       -0.03486552616110
N           -4.88465907123284       -1.18284124914270       -0.07479074616380
H           -5.70616077281078       -0.61710176225602       -0.20364304137534
H           -4.92134467684917       -2.14422917048678       -0.36257198255470
N           -3.82421231751989        0.78633353700229        0.02673496056279
C           -2.92426223358159        1.75403096813655        0.09783368235655
C           -1.52527926936349        1.73954843299967        0.07709742633323
C           -0.90111724524588        2.99940511766962        0.11774430067740
N           -0.38990382497473        4.02996718778945        0.15141095941908
H           -3.38748915680363        2.73509826528541        0.16122585452159
H           -2.68228273935367       -2.40977196588142       -0.04853847898815
H            2.56394316585163       -3.61416577287531        0.04092173009242
H            4.13653716082734       -1.94451008682813       -0.03616280572635
