28
 energy: -51.415950412311 gnorm: 0.000447489307 xtb: 6.6.1 (8d0f1dd)
N            1.18591341920889        4.04880947134191       -0.00445537268548
C            0.43005454331837        3.18091595504486       -0.00322299079641
C           -0.44682026002179        2.08264449145061       -0.00252145434779
C            0.10507489633233        0.77794968479237       -0.00230724828493
C           -0.64119512440855       -0.50390378330591       -0.00112396536192
C            0.63371248840122       -1.21451972436638       -0.00140477457671
C            1.31618873681697        0.09529706461969       -0.00262830030634
C            2.72410569746923        0.32635661390223       -0.00377327019507
N            3.18914755109796        1.58794102011271       -0.00504511673175
H            2.57142630313719        2.38436047573820       -0.00499247047728
H            4.18089112699314        1.75333524894141       -0.00578968878246
C            3.61851774828302       -0.73746224242556       -0.00362562487595
C            3.39492357445789       -2.13334513160202       -0.00237515752167
N            2.35166468550002       -2.90879639193798       -0.00123321515737
C            1.06250906975063       -2.49290140283124       -0.00087710586571
H            0.34338118506245       -3.30532898357993       -0.00002050958811
H            4.31756446344087       -2.71221934913004       -0.00237109474728
H            4.66498061153513       -0.45535154272490       -0.00452394560062
C           -1.95703907411292       -0.79948153786476       -0.00038443341419
C           -2.38585960915699       -2.14325996234622       -0.00025039628044
N           -2.78577775320714       -3.21988833941368        0.00244561502756
C           -2.99794024708287        0.24796134223621       -0.00064116234893
N           -4.27171494643494       -0.20308841038145       -0.00038741287804
H           -5.01175429146898        0.47691837194660       -0.00046875515278
H           -4.48474972923016       -1.18539090609972        0.00021585149200
N           -2.87288064358209        1.53925876725194       -0.00108551604602
C           -1.80507254722667        2.34463776882701       -0.00175803217605
H           -2.09736987287236        3.39073229030399       -0.00183248272024
