31
 energy: -54.575279367361 gnorm: 0.000502088666 xtb: 6.6.1 (8d0f1dd)
N           -1.31873838046001       -4.09698236604908       -0.03716193122811
C           -1.34979724728135       -2.94950163485753       -0.01245647921661
C           -1.43705079160647       -1.53897693282709        0.00833010929385
C           -0.29711939899458       -0.81487940992563       -0.00271432002101
C           -0.00259746176837        0.63268466023758        0.00511519268843
C           -0.91769970917121        1.71620474277497       -0.00761397402388
C           -0.39612332382622        3.01323040001572       -0.05255041252966
N            0.04287095289177        4.07977286799173       -0.10315696920143
C           -2.30952435048343        1.58039372149106        0.00658330884931
N           -3.05249385746388        2.73174094903640        0.05280825245650
H           -2.59070682487517        3.61254641464862       -0.09894801883375
H           -4.03698140985594        2.69152791333469       -0.13978006213988
C           -3.07808998603774        0.38325479364429        0.02738391405779
C           -2.77066260275900       -0.95300576809695        0.03690961415643
N           -3.79341582717245       -1.85238395272121        0.10198332349628
H           -3.60698560333893       -2.83506234027332        0.00514817868014
H           -4.74444145580006       -1.53851282506698        0.03707734322971
H           -4.14644212794174        0.57913262550443        0.04958250839697
C            1.36511929981769        0.37718400816758       -0.00265888521688
C            1.13675595537705       -1.08712491050324       -0.01598351939815
C            1.94276283024214       -2.16322269572649       -0.02152215675841
N            3.30331970997182       -2.15556970316707       -0.05963984463510
C            4.04375044958525       -1.09070197029581       -0.04646321741933
C            3.81338997217009        0.30503184660980        0.01972810351414
C            2.63095615964920        1.03220549668716        0.03395832969653
N            2.68527436722038        2.37759457482137        0.09405391801515
H            1.85506273402094        2.94614351443512        0.05987098237834
H            3.57878477049878        2.83764838856005        0.10443620152836
H            4.71804246825615        0.90199511544494        0.04375068399480
H            5.10278342897317       -1.34320702224073       -0.09327890281633
H            1.51685004186202       -3.16086678415447       -0.01194565169420
