31
 energy: -55.393140390572 gnorm: 0.000724174148 xtb: 6.6.1 (8d0f1dd)
N           -3.00571971118932       -3.77994048647671        0.02341636950311
C           -2.46970208260332       -2.76177751116524        0.01485496870290
C           -1.82430769300317       -1.50934299448144        0.00570866124271
C           -0.42194411665211       -1.57097133490663        0.00227752707323
C            0.39833306658269       -0.48477348488289       -0.00176807104736
C            0.12732329410388        0.96438026812119       -0.00135772135492
C           -1.07452324411543        1.66213860368732       -0.00652160202053
N           -1.05051847787451        3.01264889271557       -0.01556534774754
H           -1.90507478895656        3.54293964902131       -0.00929408133531
H           -0.17087840676172        3.49370678954602       -0.00399447404821
C           -2.34273307039810        1.01294485921786       -0.00631174336487
C           -3.43810199672700        1.89465354283767       -0.01220403700537
N           -4.31772276262959        2.63952304418888       -0.01648871067609
C           -2.67965585978700       -0.36946450455299        0.00086243639967
N           -4.00391200330304       -0.64340721354773        0.00361559844923
H           -4.32084108060214       -1.59868553881123        0.00728431558608
H           -4.68287283872401        0.09903766023242       -0.00099086592152
C            1.51477565475507        1.24407150200695        0.00088833556511
C            1.80201220653017       -0.22122114174551       -0.00193446799032
C            2.98522869045973       -0.91007312494017       -0.00612884721480
C            2.94175647171536       -2.32612024168492       -0.01388997791825
N            2.91127601357823       -3.47230690203954       -0.02044818002796
C            4.26396748768156       -0.30108524690800       -0.00447659530331
C            4.57508134440921        1.04224773733982        0.00255425929368
C            3.77275130715361        2.19022360503476        0.00862615606848
C            2.38814169314268        2.30696843584777        0.00708786038755
H            1.98738350419397        3.31450374475756        0.01125343049396
H            4.31912561102040        3.12485004299938        0.01438325240471
H            5.63892452119846        1.25118968468678        0.00368410325423
H            5.09936762866810       -0.99000506131958       -0.00869956124164
H            0.02242068748595       -2.55883914845518        0.00402583247068
