28
 energy: -46.620215721622 gnorm: 0.000434907413 xtb: 6.6.1 (8d0f1dd)
N           -1.62692204925049       -3.15890369513415       -0.12029080691801
C           -1.63863593169994       -2.00746266160308       -0.06425855190233
C           -1.64483917137882       -0.60490217422947       -0.01164479869572
C           -0.40148739312445        0.05693554060129        0.00696372884411
C           -0.13439858475596        1.52854051626825        0.01403383954678
C            1.28192507316426        1.23997403392397        0.00223640715675
C            0.96520790816501       -0.20873560632170       -0.00422224011554
C            1.89776877869495       -1.28627035576103        0.03084993430914
N            1.46036909490454       -2.55466399394875        0.12630552419074
H            0.48511824483313       -2.80088594757931        0.10381106957286
H            2.15954724527127       -3.27787946472361        0.13318884470907
N            3.21363437232540       -1.17894944082954       -0.00979775666391
C            3.96698293216272       -0.07369021346074       -0.05697572562912
C            3.71214740548584        1.27532904069046       -0.03284296291567
C            2.44897521642209        1.91902464372975        0.00158729950556
H            2.43367193496286        3.00160560408382        0.01357833205379
H            4.57808285932433        1.92309107969344       -0.05621940732902
H            5.02011434375695       -0.34552450488173       -0.11264132739777
C           -0.93989319402807        2.60473505263250        0.01765825724235
C           -2.36087215443786        2.52637132605541        0.02927754743472
C           -3.16539835130168        1.42717964048383        0.02774784622395
C           -2.89649737867960        0.02561391106745        0.00742585384396
N           -4.01226997455275       -0.77418131019708        0.06193146901343
H           -4.90882108049341       -0.37089980290898       -0.14404790009054
H           -3.90877479791057       -1.76128619454465       -0.10419176988078
H           -4.22976471556269        1.64010279920152        0.04399773477404
H           -2.87150086211333        3.48107698910807        0.04214133513939
H           -0.50091808578378        3.59397840688405        0.01623491147773
