29
 energy: -55.924347958590 gnorm: 0.000888008344 xtb: 6.6.1 (8d0f1dd)
N           -5.11001196470369        0.00092066540206       -0.02480103232747
C           -3.96000306634757        0.00514452088613       -0.00930859646833
C           -2.54534024357065       -0.00018175499294        0.01066962372732
C           -1.99725121127810       -1.29238853941887        0.01048505253888
N           -2.84628521834208       -2.34625403672766       -0.01526724127056
H           -2.48545857356793       -3.28516881760484       -0.00682442552323
H           -3.84237346797745       -2.20718968696136       -0.02918294721984
C           -0.59607709509884       -1.63974654261341        0.03247182775216
C           -0.26387117154980       -3.01507015303106        0.05980081596150
N           -0.00641693748217       -4.13284133696505        0.07757632297566
C            0.42506054866174       -0.74198348415336        0.01972684639451
C            0.44647100172570        0.74118463412108        0.04028668192506
C           -0.60964283903867        1.65521104483139        0.06017869498915
C           -0.26446231053402        3.02165378288504        0.10476589000661
N            0.01049535274673        4.13695681956235        0.13574134191471
C           -1.97453998888876        1.31861292315406        0.03656639611062
N           -2.85585047475107        2.35098120773425        0.03712238593725
H           -2.51287554723481        3.29577166895366        0.06831849073658
H           -3.84786801298854        2.19156220891245        0.03725461541343
C            1.84081310730075        0.74644184899259        0.08873502930333
C            1.86315922729595       -0.75980558760889        0.03736846668359
C            2.90999111491417       -1.58634179162328       -0.19170875389715
N            4.18825816480640       -1.21293430007683        0.05604401540328
C            4.61141829181144       -0.00774972416869        0.21233498282932
N            4.15905271535102        1.18521735825600       -0.22429318024732
C            2.92162443808039        1.56635381872333       -0.26431311326269
H            2.73620117808999        2.57249547787074       -0.62913555068830
H            5.59045294382685        0.07145542161322        0.68386756572062
H            2.77736468564790       -2.63161394815625       -0.44209069141635
