35
 energy: -61.473755506374 gnorm: 0.000669522908 xtb: 6.6.1 (8d0f1dd)
N            6.07233295534747        0.40617134712409       -0.01601361006598
C            4.92250407560130        0.32750573884370       -0.01241204932781
C            3.51810352616071        0.23441107125164       -0.00404656117588
C            3.03025857920987       -1.11862596583564        0.02779577290310
N            1.79359639492870       -1.58138127719447        0.04267547268332
C            0.73737831488400       -0.79957537538848        0.02482902628852
C            0.52920215656774        0.70327923454620        0.00243464397197
C            1.44568768202745        1.69756840482662       -0.03273281688043
C            2.84847758377265        1.47342679092473       -0.02951333584719
N            3.61990783187118        2.60464560381062       -0.00235279891593
H            3.19265578044224        3.48648190142919       -0.22264057687190
H            4.61313576252531        2.52491655849933       -0.14231331750684
H            1.13480391159214        2.73669760339628       -0.06766305010293
C           -0.87759432413986        0.47167629588969        0.00388753458875
C           -0.63833522537824       -0.99024992173119        0.01816071695985
C           -1.51180879962161       -2.08434938513545       -0.01202272104984
N           -0.94269578721048       -3.31343918631832        0.02218845047203
H            0.06005944318260       -3.35755451652789       -0.04387661138130
H           -1.48987086490155       -4.14124975963089       -0.13097874794086
C           -2.89439821127931       -1.94570710561888       -0.05173523852558
C           -3.69284849780845       -0.78926736018901       -0.03993695196159
N           -5.03201700897397       -1.03366489202699       -0.09054065672548
H           -5.37637746120332       -1.97439568505219       -0.03891738802591
H           -5.68687117686922       -0.27355567949154       -0.02629653265409
C           -3.33960193925251        0.58526997957677        0.00561070150588
C           -4.40799501107322        1.48609248931758        0.06247695823473
N           -5.28185340182224        2.23996945745966        0.12763414168050
C           -2.04084767084650        1.19857229332468        0.00836375541336
N           -1.99096049360808        2.56316453621843       -0.02885671460901
H           -1.11654588329735        3.00674508721586        0.18430231924223
H           -2.83525811615708        3.08357290228601        0.14310019084024
H           -3.45265834177231       -2.87505370418787       -0.08789399365278
N            3.97462002177516       -2.11134304469132       -0.01335177513787
H            3.64110840784885       -3.04053820240810        0.17521875543707
H            4.93347617637823       -1.90024244531238        0.20282625883786
