29
 energy: -55.153883725188 gnorm: 0.000939248364 xtb: 6.6.1 (8d0f1dd)
N           -0.58012323771736       -4.52488885208885       -0.00106415528218
C           -0.93933418154586       -3.43531574289907        0.00152769416710
C           -1.38343120006445       -2.09419921665158        0.00032562284428
C           -0.45680275872068       -1.07993811267937        0.00024943457181
C           -0.65213062962658        0.41559882063606       -0.00010065493404
C           -1.83739857638671        1.13739151625019        0.00009026532807
C           -1.77048113563851        2.53868973722195        0.00003154975583
N           -1.70300586756212        3.68908187498596       -0.00148919094437
C           -3.12819219083154        0.52929170558786        0.00038160196122
N           -4.21028188421402        1.35227938412801        0.00267423735630
H           -5.11926802823771        0.92638480469075       -0.00147884805193
H           -4.11595228429567        2.35179587471072       -0.00292035820163
N           -3.47449188238317       -0.75538239311991       -0.00015185269439
C           -2.78361292679217       -1.86027627158213       -0.00008992150062
H           -3.41051068333166       -2.74831451422199       -0.00050047111364
C            0.73537449858294        0.59463627481797       -0.00036592583661
C            0.94107353066816       -0.88296414458112       -0.00000222478818
C            2.10217065165084       -1.61869968697502       -0.00050123072180
N            3.32960735794477       -1.13652920366320       -0.00070733475505
C            3.67512122133259        0.16497682108887       -0.00059795129363
N            5.01463877174129        0.30878701035756        0.00018166172552
H            5.41607467606049        1.22908629717616        0.00010145015862
H            5.58683528980778       -0.51679507023409        0.00056103696768
N            3.04158606034175        1.33561792460011       -0.00139974414571
C            1.73107707473467        1.58516043219680       -0.00143677158964
N            1.42119522330211        2.89126634468992       -0.00267031403807
H            0.46912412620793        3.21887520907235       -0.00226375809685
H            2.17901945212778        3.55189360671814       -0.00322104047403
H            2.04688281634452       -2.70331935353288       -0.00068779797443
