31
 energy: -53.794077501953 gnorm: 0.000843709441 xtb: 6.6.1 (8d0f1dd)
N           -1.29514166845049       -4.03364094270496        0.03097902950626
C           -1.56497651865624       -2.91429838585407        0.02530145052067
C           -1.83920267901041       -1.53538921312528        0.01785890073634
C           -0.79256615494435       -0.63806413482692       -0.00243615309347
C           -0.87143371453736        0.89196233628876       -0.00678479497401
N           -1.83482203462663        1.76814115530679       -0.00762925808060
C           -3.12241731913222        1.41998285665729        0.01198126977113
N           -3.97358530699453        2.50494103045236        0.07798067761224
H           -4.92354091099974        2.38027002277801       -0.22724133820313
H           -3.55126660157585        3.39195534396671       -0.14034521750134
C           -3.72422628873528        0.14138115242736        0.02983586815050
C           -3.19443009863970       -1.12970256442611        0.03279456001722
H           -3.91357496519646       -1.94074552312716        0.04780851122969
H           -4.80855428996362        0.18066514985197        0.04711353437668
C            0.52401592744836        0.94371793559709       -0.01908415487595
C            0.60694060426219       -0.53578740788673       -0.01678993017088
C            1.75110520238933       -1.34459363731140       -0.02163057810979
N            1.64198256796374       -2.68817078863490       -0.04118592121395
H            2.48953047739673       -3.22703457712669       -0.02208315548859
H            0.74967884489219       -3.15317271370605       -0.02550649761069
N            3.01054545542037       -0.90864566968047       -0.01845897762411
C            3.47442877848679        0.33953734006371        0.00643981704447
N            4.83822716970259        0.34054564846553        0.06028206685302
H            5.36067925940700        1.18283502475511       -0.09555878333150
H            5.29549934552112       -0.54609909514060       -0.05845998514267
C            2.87075229119489        1.61010728596727        0.01797519876223
C            1.51361576642968        1.92854287296232       -0.00076330796200
N            1.10520034267463        3.22241776482862       -0.03738414355783
H            0.11986138504307        3.39237358262951        0.07418510725504
H            1.75407701463903        3.96451909534545        0.15468693813851
H            3.55855714919553        2.44692317740875        0.04214841206806
