33
 energy: -58.825289730569 gnorm: 0.000896346987 xtb: 6.6.1 (8d0f1dd)
N           -5.31111972410590       -1.82111233567943       -0.01356820229046
C           -4.38864943300470       -1.13079258898629       -0.00917176436503
C           -3.27192807314219       -0.27868866980011       -0.00300332846713
C           -2.00212041052374       -0.96156361905250        0.00340958461031
C           -0.82081694836303       -0.33391649693671        0.00893989728667
C           -0.43620296136980        1.10033405643005        0.01178500919146
C           -1.25334769574914        2.23585784047739        0.01010706627160
C           -2.61310544097087        2.20930949205113        0.00392741694519
C           -3.53179292994237        1.09335522905527       -0.00362502824236
N           -4.83487955844047        1.47192582548480       -0.01598366911039
H           -5.08804442391881        2.44323876183014       -0.00201040799795
H           -5.56325803445979        0.77773026925062       -0.01327584407299
H           -3.11335081242816        3.17031716306938        0.00361039143602
H           -0.76108891072465        3.20044999135641        0.01457740550021
C            0.91811000069583        0.77214229211163        0.01881292632865
C            0.59959960901966       -0.66512906869286        0.01598637203525
C            1.36966034255142       -1.77827167875117        0.01363912019281
C            0.73823579724645       -3.04171897834239       -0.00290428059881
N            0.24587735367760       -4.07889091459796       -0.02421230493411
C            2.82507581342465       -1.75117591435020        0.01899114477505
N            3.42037945577716       -2.97751570216200        0.05470208874614
H            2.86583507841809       -3.80974086630861       -0.04481840343862
H            4.41730234755666       -3.05651562360328       -0.02887819668503
C            3.63267109854999       -0.63968491838888        0.01546281724916
C            3.39970449989764        0.76360735477850        0.02012144113640
N            4.52698609710330        1.53637779294836        0.07225346910838
H            4.43692284898341        2.53126185725169       -0.04545997777029
H            5.42570083042938        1.12493364230901       -0.10360223951596
C            2.16685813826230        1.42520635735218        0.01625489374942
C            2.15655599132465        2.82999281987266       -0.00336466737006
N            2.15849124056631        3.98072073389939       -0.02988303573558
H            4.69199882131016       -0.88114069812548        0.02044647231474
H           -2.04499541335113       -2.04331559015026        0.00340187111750
