22
 energy: -40.265220690381 gnorm: 0.000727944606 xtb: 6.6.1 (8d0f1dd)
N            4.81483277604028        1.67052629325010        0.12042326336481
C            3.85426813783779        1.04338524064832        0.07376682126902
C            2.67454693287986        0.27167658094922        0.02955317492666
C            1.44525664203246        0.96845303405445        0.11736545374294
C            0.23322532288237        0.36983708415800       -0.06526519771040
C           -0.14500145198232       -1.08081630294946       -0.08742307603078
C            0.71288673155170       -2.13830433596607        0.17354414248794
N            2.00566485512284       -2.09953176121045       -0.01342174981854
C            2.82613287353641       -1.10258491565368       -0.23169296294688
H            3.80509865727996       -1.42170953006650       -0.57978789394969
H            0.32100367578111       -3.07903923987631        0.54411865531140
C           -1.50512102345831       -0.76377573170515        0.00973836332384
N           -2.64768613732800       -1.38149387085766       -0.09435932828570
C           -3.79199455073183       -0.72146870024448       -0.04552456204461
C           -4.04816511092290        0.66176755420777       -0.01901123753759
C           -3.18562198422200        1.75092158463173       -0.03049087609718
N           -1.84789293694735        1.80002115488179       -0.07838785683470
C           -1.13845975553154        0.72804137803931        0.02049129207794
H           -3.63499007768796        2.73738178402860       -0.03782509888266
H           -5.10042366090665        0.91909927603531       -0.04220602189722
H           -4.65824979826169       -1.37299668309716       -0.07310373901318
H            1.48352729073311        2.04050688424065        0.26687222124462
