29
 energy: -46.335752971365 gnorm: 0.000550018826 xtb: 6.6.1 (8d0f1dd)
N           -0.95549927174811       -3.95381836815696        0.02573149605614
C           -1.26143003648841       -2.84637028795603        0.01068837923379
C           -1.63059255710051       -1.48508544108480       -0.00443424467074
C           -0.60089578056782       -0.52857906280401       -0.01591989327586
C           -0.70724932397233        0.95721871272758       -0.03106605965002
C           -1.75508963185587        1.79503365595567       -0.03207105874617
C           -3.12959418856454        1.37507714453592       -0.01913844114841
N           -4.04787633870837        2.40080683166922       -0.08273852626855
H           -5.00879934685441        2.18535364580566        0.12318790623073
H           -3.74180022108538        3.32379533806556        0.17290681450382
C           -3.61330020976035        0.08140346658778       -0.00608264695605
C           -2.97921211177440       -1.17449557676666       -0.00357376200557
H           -3.65470070348138       -2.02175101508192        0.00710659657591
H           -4.69712321859869        0.01754358132063        0.00084468296863
H           -1.57936493270252        2.86459492630724       -0.04445888956799
C            0.74355843060476        1.02696368561798       -0.03193495617498
C            0.78664380852703       -0.45532599888572       -0.01704918220767
C            1.89202688125973       -1.31422034354021       -0.01060303291047
C            3.18952281841553       -0.90672470073904       -0.00943629015330
C            3.74096164259741        0.42784343479487       -0.01267634743076
N            5.11144607352058        0.44531836625589       -0.04869870598833
H            5.61897015558797       -0.39638024722173        0.15938885822744
H            5.59120485321868        1.31559649140025        0.10274639171333
C            3.10706574970015        1.65246982766926       -0.02637879224776
C            1.72147903401312        1.95374050958827       -0.04031216280577
H            1.45730343758878        3.00424119397797       -0.05197465766997
H            3.76555127925261        2.51348101695932       -0.02866167785097
H            3.94251452815920       -1.68580450960086       -0.00674135779548
H            1.68945607671720       -2.37843844370121       -0.00439304738506
