31
 energy: -53.784119599492 gnorm: 0.000998735975 xtb: 6.6.1 (8d0f1dd)
N           -4.79169734248786       -2.47031981814841        0.05593234733746
C           -3.92900016171177       -1.70406896380035        0.03794244512086
C           -2.88689037746259       -0.76774034845127        0.01922035940274
C           -1.57789701347425       -1.33579132806526        0.02150902206352
C           -0.43927575176734       -0.61635650910080        0.01612997443709
C           -0.19284888824529        0.84300497354483        0.00836739604979
C           -1.09781019105914        1.92794805514783       -0.00872870666267
N           -0.53770831913792        3.15912517731323       -0.00233460382936
H           -1.09459055308690        3.98948572218946       -0.09453444639973
H            0.46508406147836        3.21439212971964       -0.05772895172644
C           -2.47161019953966        1.76935399398682       -0.01528301019354
C           -3.26474559587325        0.59510925909959        0.00059724420498
N           -4.60385650683823        0.82904887820498       -0.01623302685703
H           -4.96144520126853        1.76670106150607        0.01080966189867
H           -5.24858143347831        0.05783562277645        0.02257621769237
H           -3.04475495008945        2.69068581257882       -0.03223137396381
C            1.17976336664709        0.67076048985505        0.00494749078516
N            2.25313028749555        1.45305217817801        0.00572746195494
C            3.45902326925132        0.91367119971945       -0.00570504317806
N            4.47942301143041        1.83167684028179       -0.07765784754910
H            4.21409868787816        2.78465986523635        0.10674696627147
H            5.39819947987008        1.55517804803714        0.22191585958854
C            3.85724582520270       -0.45500126882119       -0.01082547367588
C            3.13660747288326       -1.63284029499123        0.00051895559642
N            3.80866428246897       -2.82264654148149        0.05261896914530
H            3.25240096250439       -3.64468276553190       -0.10797457644161
H            4.78233427037306       -2.85681605743149       -0.19160872344758
N            1.77982184904801       -1.83573080644611        0.01150846023753
C            0.98791271647257       -0.83186694101911        0.01324290434483
H            4.93408406830953       -0.59242599937045       -0.02420722442631
H           -1.52489938149298       -2.41675914561687        0.02898209021946
