24
 energy: -43.718548353320 gnorm: 0.000976491829 xtb: 6.6.1 (8d0f1dd)
N            5.79883399947474        0.02029663201457       -0.00394681395505
C            4.65200532760448        0.02929213465634       -0.00283795263809
C            3.23419808194197        0.02674257946424       -0.00119511291299
C            2.66382009221303       -1.29273817699438        0.00000029804219
N            1.41619182154664       -1.67227106307059        0.00154112608283
C            0.44165665426238       -0.78052638319582        0.00226718001068
C            0.43758118729871        0.74889442808652        0.00157560290867
N            1.35176393705810        1.65177307204446        0.00014295972065
C            2.65223322918168        1.28625710325423       -0.00109624124278
H            3.32504867430963        2.13741721629112       -0.00219206597950
C           -0.99419540848868        0.70490377747920        0.00322570235946
C           -0.94725519489178       -0.77853601265206        0.00384232619279
C           -2.01945025427073       -1.67867566780469        0.00589251242397
C           -3.32582196781296       -1.29288872166892        0.00734707696436
C           -3.88031075633338        0.04682033370353        0.00687242402618
N           -5.22768435570889        0.08827400594973        0.00776499743640
H           -5.79178787529451       -0.74252353431116        0.00863941977557
H           -5.66664714641782        0.99371889706142        0.00749312874668
N           -3.34663127371763        1.25323390695731        0.00589349952765
C           -2.04603370069629        1.56821213980903        0.00443199381819
H           -1.86113051587165        2.63709434845617        0.00411091080229
H           -4.07460500766444       -2.07471574008886        0.00889051182668
H           -1.78779938267712       -2.73574930180420        0.00639312415616
H            3.37904570035450       -2.10832263003714       -0.00044635019296
