32
 energy: -59.110344215148 gnorm: 0.000656528100 xtb: 6.6.1 (8d0f1dd)
N           -3.23709514087156       -3.25245381875398       -0.04644353727448
C           -3.13403700757947       -2.10715004207282       -0.03132962286409
C           -3.01334994643189       -0.70316665199188       -0.01478893089041
C           -1.76959776903010       -0.10486272953464        0.00124463350257
C           -1.45492355862569        1.37177087406783        0.00217338022731
C           -0.07593344506066        1.05294197513212       -0.00126276918872
C           -0.38464195910108       -0.38594880949633        0.00342188470344
C            0.45114222451661       -1.50464690164957        0.01366317712417
N           -0.07779851795502       -2.74060494963428        0.03244225475795
H           -1.07417058798673       -2.88486874824574        0.02393751132809
H            0.52353322600197       -3.54793139572689        0.03336309268041
C            1.87140747048549       -1.39272370405860        0.00891835122210
C            2.54644749657246       -2.62800760747490        0.01461931387628
N            3.08716841993558       -3.64559227597369        0.02300623517488
C            2.71852819559287       -0.25367879615936       -0.00282987281390
N            4.04563956039749       -0.52211989276383       -0.01084001686154
H            4.37442365318423       -1.47266088275918       -0.00610917228036
H            4.71635201882333        0.22741329469817       -0.01624605538420
C            2.38912967029165        1.12840352676363       -0.00711816072833
C            3.48174285914026        2.01322458192852       -0.01331380866904
N            4.35786494883726        2.76190745301485       -0.01326513108361
C            1.11908832646615        1.76285914484376       -0.00746963396448
N            1.07830359554208        3.11324668687049       -0.01470904123880
H            1.92746338994297        3.65192340811548       -0.02213292689341
H            0.19386103845399        3.58528073401473       -0.02216880364923
C           -2.29997392621089        2.44538808887229        0.02077874268069
C           -3.69982538869447        2.34045360978830        0.03460542501717
N           -4.50233206280888        1.29687033836103        0.00831018006386
C           -4.23861959187564        0.01467115850088       -0.02171832101807
H           -5.13509415054820       -0.59947622273679       -0.05037892349376
H           -4.24895423865281        3.27752947912075        0.06700286373417
H           -1.89645852184963        3.45152295044051        0.03168771160027
