26
 energy: -42.374781834187 gnorm: 0.000717608051 xtb: 6.6.1 (8d0f1dd)
N           -4.50642806572956       -0.32464318641690        0.04103528490645
C           -3.14700803273745       -0.32939843774105        0.00858780294125
N           -2.66657730341383        0.91331504313172       -0.01118526970678
C           -1.39558286139265        1.31012605496475       -0.02806282451652
N           -1.23843750756053        2.65399660554669       -0.05083622313258
H           -0.32556404123600        3.05394543354901       -0.16253221869529
H           -2.05585378582533        3.22886924249197       -0.15196373129250
C           -0.27005212946060        0.48421793196318        0.00338689077886
C           -0.19233964152439       -0.99036080480152       -0.01566636644320
C           -1.19415973811020       -1.92706035704618       -0.04411960970999
C           -2.54356380466772       -1.60789437406902       -0.03249254719037
H           -3.24191904374327       -2.43487405148522       -0.04472463611039
H           -0.92496834304290       -2.97585310726712       -0.07011456847845
C            1.22786272945984       -0.92320718031571       -0.01121866782263
C            1.13520874139111        0.58219917329098        0.01163135963662
C            2.15247607696245        1.50068700649998        0.05465160858696
C            3.50789573461032        1.15218600358152        0.06318354089258
N            4.12566134033900       -0.01676010364986        0.02940175318824
C            3.64551876561178       -1.23618730112246       -0.00763788798872
C            2.32200878485369       -1.72960921989187       -0.01739528681130
H            2.19249168460987       -2.80534534838205       -0.03392813273542
H            4.43137665089059       -1.98822197755144       -0.03015314299191
H            4.21248425668224        1.98023966487308        0.10147153205167
H            1.92097545513345        2.56044861606864        0.08874615242269
H           -4.96836299074875        0.56244926588672        0.13202722068707
H           -5.03123951545124       -1.17233650270797        0.15080172253367
