26
 energy: -47.183626454749 gnorm: 0.000559213154 xtb: 6.6.1 (8d0f1dd)
N            4.44950614779977        2.25624887693802        0.00206407034128
C            3.51701150160770        1.57997606062715        0.00200904058258
C            2.38947167594493        0.74270137401058        0.00015952114632
C            1.14652055866927        1.39612140849847        0.00013664367409
C           -0.04904343489771        0.73759015909374       -0.00105891266170
C           -0.32151622116692       -0.71014432399990       -0.00257812628470
C            0.55219183115894       -1.80712707123158       -0.00325497670535
N            0.01898887688532       -3.03733630399884       -0.00478531108676
H           -0.98301011296270       -3.13175792123908       -0.00532070079979
H            0.61949512813037       -3.84277570430280       -0.00526028131044
N            1.88186314084092       -1.74469030912172       -0.00250926701227
C            2.66372123451168       -0.67199159325149       -0.00101814067362
N            3.96943316534489       -1.00996063840408       -0.00053471619530
H            4.20094703015416       -1.98791379021593       -0.00136541734810
H            4.69362502644828       -0.31172019206111        0.00046173766176
C           -1.69984430443224       -0.48497688631285       -0.00301849641815
N           -2.78522336612105       -1.21846383227193       -0.00416898903910
C           -3.98240835715393       -0.65483300728178       -0.00417913712269
N           -4.40813776869247        0.60404144498367       -0.00342495604676
C           -3.75301189780814        1.73563223487536       -0.00218270271340
C           -2.36071833811650        2.01788533424283       -0.00109181808396
C           -1.45012418835667        1.01419475706359       -0.00147592959163
H           -2.05208841413147        3.05587081467517       -0.00002929400072
H           -4.41329369186500        2.60049375572478       -0.00197046498939
H           -4.79709894741898       -1.37459264586709       -0.00506847866630
H            1.16256391102753        2.47910014602686        0.00122480374410
