27
 energy: -46.893902974627 gnorm: 0.000687079786 xtb: 6.6.1 (8d0f1dd)
N            5.26416384633836        1.63955364669377       -0.04897622230339
C            4.26990353028640        1.06207654548591       -0.03498959725033
C            3.05071296780088        0.35622766104828       -0.01871187678201
C            1.86785631208051        1.17345249500034       -0.00797782171104
C            0.62748531498445        0.65723717479877        0.00159012607717
C            0.12576407753868       -0.73243117507568        0.00440031549477
C            0.81860008478665       -1.97122058514578        0.00831505839475
N            0.04546852790122       -3.07455175530757        0.01747542051097
H           -0.95341106475249       -2.95339857258895        0.03861263179651
H            0.44650042696127       -3.99509824247059        0.04177545814032
C            2.20470232693442       -2.05740897544265       -0.00022713562805
C            3.15319465909560       -1.02538866934776       -0.01470784164354
H            4.17868192594605       -1.38307837944181       -0.02327413487768
H            2.61246842704084       -3.06098470034593        0.00331851557234
C           -1.19417897572909       -0.32512249803790        0.01314774561564
N           -2.39008704360707       -0.91539109872932       -0.00320476265360
C           -3.48326208282065       -0.18990256223182        0.00385710504339
N           -4.65086545510809       -0.90028950811048        0.04646742480871
H           -5.51345893127011       -0.45357454480464       -0.20898672391567
H           -4.57854945673821       -1.89131974846032       -0.10810341802144
C           -3.63510905095327        1.25173578207306        0.02433116499941
C           -2.72585720602790        2.26204520999607        0.03140064284468
N           -1.35541249761577        2.24497162190673        0.01805180086966
C           -0.75078081367551        1.12299605468655        0.01261046882286
H           -3.10922909576030        3.27607724554801        0.04710871943006
H           -4.67296792097000        1.56700842368598        0.03790559739989
H            2.00753544883326        2.24603723271777       -0.00878895073434
