32
 energy: -59.105313858138 gnorm: 0.000910455268 xtb: 6.6.1 (8d0f1dd)
N           -5.65202794403005       -0.69613926680320        0.00077616617943
C           -4.50998471275175       -0.57650061519197       -0.00072251103383
C           -3.09918980199347       -0.43220620633939        0.00126310654255
C           -2.43958373937761       -1.65319982361886        0.00047845239489
C           -1.05649372449806       -1.92798326661940        0.00053651576661
C           -0.66827692346242       -3.28945567920513       -0.00115789623649
N           -0.35780096941165       -4.39336332496834        0.00023811883424
C           -0.08053637187424       -0.96591594369030        0.00101623139374
C           -0.16598448017061        0.54223500772164        0.00145586944178
C           -1.29600610364976        1.35898998761197        0.00201606577085
C           -1.09099970635401        2.74963849117389        0.00286625137942
N           -0.90517715016879        3.88665805836801       -0.00028743856874
C           -2.64124782680110        0.92106198523773        0.00237623226221
N           -3.60585058190614        1.88619560940447        0.00572567383379
H           -3.35086212558545        2.85743106813909        0.00063260969143
H           -4.57804172669784        1.63441605949686        0.00014358262145
C            1.22984820284096        0.61596813746243        0.00114844066236
C            1.32898802108273       -0.87086615602553        0.00073225495502
C            2.40093869269955       -1.73086842824132        0.00030143020218
N            3.67969149201383       -1.41676712073526        0.00001132731713
C            4.19236675460267       -0.17429496976038        0.00016067394372
N            5.54568130279550       -0.22811619505210       -0.00017044876918
H            5.96884150927266       -1.13950442383959       -0.00099980455903
H            6.11764316860451        0.59600715194858       -0.00089644130093
C            3.62708541273633        1.11360866589746        0.00074822402090
C            2.29400845661067        1.53928151302610        0.00123630168155
N            2.05605327975338        2.86543063537900        0.00175432198999
H            2.82583218650564        3.51089306443104        0.00187970165030
H            1.12087245780870        3.23659616217114        0.00202312638775
H            4.35740482765082        1.91541848396634        0.00081836948077
H            2.20954003116616       -2.79995506215852        0.00014835507981
H           -3.08559199781112       -2.52375221178655       -0.00049378621566
