24
 energy: -43.718571892525 gnorm: 0.000719353657 xtb: 6.6.1 (8d0f1dd)
N           -1.69747804268673       -3.40933348918169        0.00122912065752
C           -1.81174661623214       -2.26506190024677        0.00071375824485
C           -1.86069022058636       -0.85689028494397        0.00104483859244
C           -0.66558374311355       -0.14168359114894        0.00123791501734
C           -0.52084984848969        1.38057423109326        0.00107415018595
N           -1.34944610972252        2.35552056668408        0.00110759432948
C           -2.68738773540538        2.14050021566799        0.00134984670202
N           -3.42534291717026        1.06883773253245        0.00113762785213
C           -3.11149385497697       -0.22036891468203        0.00084982387542
H           -3.98512485932113       -0.86627893923985        0.00048520947189
H           -3.25502500030208        3.06630596803261        0.00168029266518
C            0.89981357215902        1.21198740154198        0.00098513270476
C            0.72060566072526       -0.26018215859265        0.00124636998518
C            1.72349610346007       -1.25465762876386        0.00129707455004
N            1.39117625196452       -2.55140201790634        0.00143348977540
H            2.11113806051430       -3.25442984859035        0.00141267775186
H            0.42836217834509       -2.85389109837521        0.00142328583169
C            3.08762899678355       -0.90168284452116        0.00121854916664
C            3.69758443566612        0.35025537407025        0.00108911243279
N            3.28415049022048        1.60338599839213        0.00082691183654
C            2.01363424307524        2.00403751424044        0.00073251902490
H            1.88846078095492        3.08184927478235        0.00050284941256
H            4.78564606256581        0.30443370143731        0.00117977934891
H            3.77229134607240       -1.74150986398202        0.00129629048446
