23
 energy: -39.200527091246 gnorm: 0.000618622860 xtb: 6.6.1 (8d0f1dd)
N           -3.77746957440174       -1.68362371472048        0.04064681316623
C           -2.80935793285688       -0.72421520779885       -0.02016918785882
N           -1.58367900251672       -1.21071940579158       -0.08464507991419
C           -0.51001267401067       -0.45775963653190       -0.05262150817608
C           -0.29228225403356        1.03434976584597       -0.01997414654519
C           -1.18774184831245        2.04643733677430       -0.04954168967584
C           -2.58856931399218        1.82057768061006       -0.01013454258990
C           -3.26719710561845        0.63510603916336        0.01337934486211
H           -4.34865569769651        0.71540383415105        0.04031389983348
H           -3.19977062705548        2.71493719099425       -0.00007712801309
H           -0.84637123398393        3.07226143859095       -0.10460832545874
C            1.12183708478632        0.80592802116025       -0.06718211103034
C            0.86861569771486       -0.67621186601680       -0.12702432217383
C            1.80425999672752       -1.65030475046622        0.20881205673964
N            3.09767719206969       -1.48910251854320        0.13986276764248
C            3.74317264019984       -0.37222207655358       -0.21612921432361
N            3.50417113462741        0.88698769570332       -0.02462307788600
C            2.29237392234826        1.44105962557462        0.19215643952355
H            2.32136143126876        2.48761626400698        0.47503212917337
H            4.72811336305485       -0.57713586762804       -0.63539100785135
H            1.46678075874395       -2.62152938412832        0.55856190565225
H           -4.73753689152512       -1.45293313017097       -0.14062617628908
H           -3.47744418473768       -2.63116073292504       -0.11188073680711
