31
 energy: -54.579054797581 gnorm: 0.000754851047 xtb: 6.6.1 (8d0f1dd)
N            5.59298485173787        1.22838760948483        0.04874624766861
C            4.45910980297599        1.03968328462965        0.01988598889325
C            3.06382264349141        0.81492356444582       -0.00166961686709
C            2.32467373711534        2.02086447942617        0.00235518473984
N            1.03092080099038        2.25781679271449       -0.00679077172228
C            0.14342254598674        1.30556021639824       -0.01463422908769
C           -1.24989716858127        1.22372395641921       -0.01536263343792
C           -1.18927448398062       -0.26469120133049       -0.00992694358950
C           -2.23382560397996       -1.18799229479861       -0.00647920552495
N           -1.98200615319581       -2.51336153679406       -0.00239403451780
H           -2.74081835737115       -3.17138388506012       -0.00541205308759
H           -1.04138829950764       -2.87076467055819       -0.00613195529335
C           -3.59433893469373       -0.80113025528370       -0.00092752641838
C           -4.20445755526207        0.44513249824871       -0.00587752120348
N           -5.56622397360404        0.43869011052714       -0.02071121951722
H           -6.07703689968018        1.29887736518539        0.05864750870960
H           -6.07386131494489       -0.42369269668982        0.05925152876137
C           -3.63442073259441        1.75622686283436       -0.01751337787564
C           -2.31423078500183        2.11294564634819       -0.02138276680688
H           -2.06690971419605        3.16630926458049       -0.02859517698664
H           -4.36112105059973        2.55864149501039       -0.02365921428007
H           -4.28651968197938       -1.63731977190598        0.00657123793598
C            0.21717072108480       -0.22895722258374       -0.01130567686675
C            1.33407033124775       -1.03636115116003       -0.01262784481338
C            1.16629747771596       -2.43174404944566       -0.00341414654514
N            1.00101091700828       -3.57210244957532        0.01309180688742
C            2.67695246091911       -0.54280975592743       -0.01799072263962
N            3.66937999451372       -1.48091529942918       -0.07292077772939
H            4.62783890604050       -1.19298601308996        0.02185952344128
H            3.44708859882364       -2.45459746741783        0.03661012146098
H            2.92685937322132        2.92387698949701        0.01582939281244
