32
 energy: -58.318371287564 gnorm: 0.000606891970 xtb: 6.6.1 (8d0f1dd)
N           -3.87959179275094       -3.54313733931731        0.17832929778577
C           -3.19035723641905       -2.62047092710133        0.12858273655920
C           -2.35559188330082       -1.49323803788405        0.06853550994423
C           -0.97631379874240       -1.77885767782543        0.05008614735517
C            0.00599049301876       -0.84305069752991        0.00530457162423
C           -0.03241285582834        0.64225366503390       -0.02834192117465
C           -1.10065212017798        1.51630623132358       -0.06021511208287
N           -0.86762091664035        2.85042586371966       -0.09819945688268
H            0.07221239104839        3.18015454657710       -0.21338861988325
H           -1.63273178677076        3.49634755398802       -0.19492627959222
C           -2.46639814236490        1.08273204660556       -0.03647872290578
C           -3.40179315103766        2.12438757215958       -0.08745648762615
N           -4.15198732208389        3.00120399991188       -0.13597338736357
C           -3.01300748703373       -0.22737945245312        0.02932389418866
N           -4.36414274964745       -0.28699026486858        0.05292505383040
H           -4.82714913580953       -1.17972866101711        0.09215005724381
H           -4.91355862829113        0.55543078364287        0.02428466637294
C            1.38019684890415        0.70491401629995       -0.02969824937247
C            1.42738580347168       -0.80499169534984       -0.01623001621546
N            2.38262557974714       -1.67240755972944       -0.04217615004756
C            3.67729570452994       -1.28342078438679       -0.07533490132425
N            4.53347244593431       -2.32608407330249       -0.16962531095157
H            5.51946482381586       -2.15482817305503       -0.23265716432021
H            4.15752549001622       -3.25266411714527       -0.25106398225277
N            4.26192848362979       -0.10185898109846        0.00328572523990
C            3.77000152146343        1.12894436259353        0.06256531447881
N            4.74623283687734        2.08206224142112        0.12204663084910
H            5.68423246164946        1.75713604685721        0.27947282244755
H            4.51753145742934        3.02232651821953        0.38972998996668
C            2.42798715685275        1.57942928563639        0.01965121783813
H            2.26763636843889        2.65138787418723        0.05049792027327
H           -0.69598504332916       -2.82415114351240        0.07786570209768
