28
 energy: -50.626371095257 gnorm: 0.000672637868 xtb: 6.6.1 (8d0f1dd)
N           -1.16587910182523       -3.89527609022188       -0.01633991935394
C           -1.45535237456893       -2.78059229120080       -0.01597694034026
C           -1.74556894135989       -1.40689760683402       -0.01086788232311
C           -0.68574846400643       -0.47678786530785        0.00483468306769
C           -0.81890472166537        1.02691605624193        0.00476581918224
N           -1.79504201295257        1.84796185841690        0.00065491422476
C           -3.09650154564878        1.39671967789190       -0.00323118078984
N           -3.97503169548214        2.42278735449715        0.00910664973225
H           -3.62558578219711        3.36328787401059        0.01583598049860
H           -4.95928207606994        2.22775284409167        0.00275444423463
N           -3.63239427204350        0.20307506742651       -0.01959956547634
C           -3.07720449075345       -1.00724438959176       -0.02581885073257
H           -3.82401624071609       -1.79670654338697       -0.04413803158863
C            0.62019690919377        1.12612827971662        0.00847747809011
C            0.69215667608005       -0.35220682771207        0.00839162132585
C            1.86894286632689       -1.15850935204726        0.01642079846431
N            1.73627552571597       -2.50088364814621        0.02910813057571
H            0.82956060271749       -2.93864336393009        0.02193640641924
H            2.55024386258606       -3.08946026049865        0.02985820988475
C            3.12786258831480       -0.59178742836425        0.01280872852051
C            3.53868964044000        0.77742384253538       -0.00340324632711
N            4.88362371161958        0.95854202700934       -0.02055501952947
H            5.52973818925706        0.19240462588179       -0.05616145240372
H            5.22080967592544        1.90447158880335       -0.04638399490797
N            2.89550130747630        1.93138373211768        0.00272239899062
C            1.56648673171741        2.09651198358485        0.01301258633720
H            1.25935376783298        3.13677747150942        0.02009524730748
H            3.95226016158456       -1.29664826319357        0.01723642661678
