29
 energy: -50.341376350227 gnorm: 0.000648165401 xtb: 6.6.1 (8d0f1dd)
N           -2.36476705595785       -3.01021045522849        0.00118437299758
C           -2.13669438887930       -1.88029762729279       -0.01033681223969
C           -1.86419379433888       -0.50406637051146       -0.01208066112941
C           -0.55482551675669       -0.06955995105424        0.00988001295371
C           -0.02708983599376        1.35208086398330        0.01114395415785
C            1.28446353269058        0.84408075887412        0.00918779509435
C            0.76691245306414       -0.55192248735979        0.02060364514971
C            1.47163397154310       -1.75931250217019        0.02669180676214
N            0.83758441554888       -2.94562833050908        0.02401277139487
H            1.41259546501728       -3.77039078533167        0.02682547018011
H           -0.16492247310662       -3.02898248218606        0.01275744797083
N            2.80998404139705       -1.88803195098216        0.04098516885511
C            3.71530602282002       -0.93087445553681        0.03095279810309
C            3.69743540503232        0.45386565614393       -0.00600400904489
C            2.58801144718555        1.32530617343491       -0.01745999096578
N            2.81257589792296        2.66219393137563       -0.02599408821508
H            2.04086269476361        3.29341943771944       -0.14107807265621
H            3.74567400056381        3.01253173571503       -0.15180094413744
H            4.66769450366576        0.93483085914708       -0.02047118776217
H            4.71744895026460       -1.35873169938765        0.04926187195088
C           -0.71144926097114        2.53636995973100        0.06039056590859
C           -2.10747967214266        2.62170283973613        0.08920101213084
N           -3.04567581119692        1.69942494719485        0.03896181444791
C           -2.99320253914972        0.38437861240893       -0.03448023617791
N           -4.22864676091981       -0.19005126157006       -0.17476806102122
H           -4.35019601035289       -1.17620846680975       -0.02319261420946
H           -5.01731225169466        0.41926914099885       -0.04588808255967
H           -2.52803940983761        3.62154209808569        0.16106710651440
H           -0.16657350438133        3.47282583128141        0.09561794384688
