30
 energy: -54.871908575587 gnorm: 0.000720052945 xtb: 6.6.1 (8d0f1dd)
N            5.45232382703355        1.31384045106729        0.00593962216610
C            4.32331527883061        1.10045395817043        0.02007281065646
C            2.92969931733164        0.85207165336199        0.03789166925713
C            2.17343019658958        2.03263274585191        0.08364358086244
C            0.79812583686187        2.21754381130632        0.10799033099245
C           -0.11853658811793        1.19933699173666        0.06988993587153
C            0.08598744927015       -0.29821196573976        0.05343960672509
C            1.25017154400945       -1.04202360120444        0.05662070008129
C            1.11511156564235       -2.44269769406264        0.08335437183140
N            0.97669323785339       -3.58542319660431        0.10159226797214
C            2.57264490375670       -0.51787817182817        0.02408587572627
N            3.58781636420392       -1.42805203213780       -0.05030637632049
H            4.54208363524630       -1.12038047484936        0.01958626259286
H            3.39106463583206       -2.40895113834973        0.04283061207259
C           -1.30879060920214       -0.48243574165821        0.09823106751750
C           -1.50719438686813        0.99590522665241        0.11064164601032
C           -2.69939745823017        1.70979642397282       -0.03991990725341
N           -2.68437474151448        3.02355777125565       -0.34436950791904
H           -3.56428705864838        3.49184251282861       -0.47121882290004
H           -1.82140066647750        3.50790264155527       -0.50747585781087
N           -3.91427429298245        1.18999346410401        0.16066841444757
C           -4.19913556587725       -0.07464946223235        0.38674144100529
N           -3.60377602170754       -1.22061958156255        0.18148551547142
C           -2.29989547899450       -1.45736066946201       -0.04907084950081
N           -2.02726030712762       -2.72444688911369       -0.40787381822702
H           -1.08777549561971       -3.08697546558390       -0.41024098276544
H           -2.80138443363461       -3.36699768938679       -0.42619066107319
H           -5.22008218553955       -0.20248514149105        0.74917263065523
H            0.44203395883467        3.23904623451980        0.16456347190419
H            2.77282717294585        2.93546088478360        0.10302611775048
