27
 energy: -47.690187977118 gnorm: 0.000323575687 xtb: 6.6.1 (8d0f1dd)
N            5.69982863940486        1.11902901964405        0.00206614497106
C            4.64083956478865        0.67395513451525        0.00169172469385
C            3.34483741213836        0.11388245199091        0.00066118995123
C            2.29195497102837        0.99235729212536        0.00037915396348
C            0.94910774149330        0.59765493156674       -0.00045604338888
C            0.36646380065583       -0.76253592885992       -0.00119036701140
C            0.89446276572159       -1.99092186076511       -0.00129165537733
C            2.31974974059251       -2.23181808703673       -0.00061768206100
C            3.33295750755234       -1.34161475008758        0.00020777689319
H            4.33406406932342       -1.75984051578957        0.00063836271247
H            2.59610548069637       -3.27822597806969       -0.00078952357810
H            0.24844477626349       -2.85846124479813       -0.00188930467835
C           -0.96637374984248       -0.14833643755460       -0.00172108585722
C           -0.31886029512337        1.18114103376769       -0.00095517545935
N           -0.80591970640994        2.42295097508406       -0.00081985942712
C           -2.08087236218001        2.65543559870488       -0.00143429190919
C           -3.22120569580941        1.79884397244789       -0.00231444557386
C           -3.35972752102965        0.43046816329975       -0.00281985608081
N           -4.60455985860501       -0.11045492575451       -0.00369187220303
H           -5.41324043376624        0.48432184349940       -0.00377659824289
H           -4.73373894889652       -1.10707494606155       -0.00389820794540
C           -2.25924761073796       -0.53794741890243       -0.00251638825716
C           -2.57865600865156       -1.91234359451903       -0.00298820177102
N           -2.85506608757040       -3.02720856908687       -0.00372217160701
H           -4.16228755313333        2.33837478453552       -0.00264333574648
H           -2.32067797557221        3.71421482272361       -0.00124191820230
H            2.50222544346904        2.05457992698060        0.00084542339266
