25
 energy: -42.654247286692 gnorm: 0.000783774158 xtb: 6.6.1 (8d0f1dd)
N            4.11450256414039        1.37806513927606       -0.14112994333651
C            3.06584109211726        0.53166342868790       -0.02386134735238
N            1.86516713722477        1.23479480998823       -0.00909981080687
C            0.76071634770762        0.60789601285311        0.00661352493116
C            0.34747274036861       -0.82903973941000        0.02799742691081
C            1.19362218385521       -1.94415355347285        0.09971441931827
C            2.55810324410102       -1.81704654546111        0.12184500703419
N            3.35344730566800       -0.73122371734609        0.05095808058510
H            3.14732428397029       -2.72627378959516        0.19878248936750
H            0.77181033019135       -2.94057638659310        0.16026602746730
C           -0.98841611106834       -0.44792413623155        0.02962923485010
C           -0.65341856925009        0.98608484362203        0.01169769676273
C           -1.41918917126517        2.09003164425684       -0.00518752342390
C           -2.84912077520723        2.02554781101170        0.03865157976608
C           -3.64907974325798        0.92147902043680        0.06740688842644
N           -3.43670434974952       -0.41418403828131       -0.00829678722513
C           -2.29128607803438       -1.04109255253429       -0.03513579084835
N           -2.35713931985761       -2.38772248713971       -0.12501507344562
H           -3.26054677475802       -2.81187050661886       -0.24443347337781
H           -1.52335000507671       -2.93320499161602       -0.24541839926574
H           -4.71732504195575        1.11609847498042        0.13645000484793
H           -3.35758817428243        2.97986250474959        0.07166004197031
H           -0.95611445526439        3.06669619594152       -0.02668128525406
H            3.94342116920034        2.36631625468866       -0.11320259694427
H            5.04667464038266        1.00954743200716       -0.09682815565733
