28
 energy: -45.813167365903 gnorm: 0.000701182692 xtb: 6.6.1 (8d0f1dd)
N           -4.79950673163161       -0.88083152783761        0.03119605404369
C           -3.44209840232595       -0.66584154581951        0.00140655315593
C           -2.64894134372367       -1.80116819677752       -0.00526045934270
C           -1.24362751470729       -1.90291395017928        0.01666894734106
C           -0.40259779923870       -0.84336936651249        0.01830847535892
C           -0.62760829520911        0.61511753285206        0.01161449638957
C           -1.85328770447806        1.32913592113003        0.04607660451644
N           -1.77567919335113        2.69216366570905        0.03721880101475
H           -0.88546723585636        3.10853989877847        0.24603687856082
H           -2.59757792296501        3.23034240843795        0.25150443877149
C           -3.08528065412045        0.71665161112465        0.04372399818749
H           -3.93608622127543        1.38994757700806        0.07474274282016
C            0.73439758446351        0.88900333185883        0.00063268923827
C            1.02147739173261       -0.59394786252576        0.01830213007982
N            2.07751444744556       -1.30814882943200        0.03318876516721
C            3.32354841046005       -0.71317874887586        0.03645224075050
N            4.31123539615096       -1.64139001271377        0.18273651135895
H            5.25758762556644       -1.34468420218547        0.02520899329825
H            4.06393767955874       -2.60605261898828        0.05346233094310
N            3.72151196845675        0.52158554341111       -0.06126522810126
C            3.02514161122311        1.66815870416996       -0.13037405934168
C            1.67174935367260        1.91663868694977       -0.08978756178844
H            1.34663538241546        2.94955965891109       -0.15666153658686
H            3.68783640552525        2.52399260629534       -0.22927854067810
H           -0.81941111017767       -2.89813760220379        0.01759741536492
H           -3.18698441967566       -2.74112816066841       -0.02799401332773
H           -5.41630814815942       -0.12062128405257       -0.19699984212724
H           -5.13721975207546       -1.80597252476420       -0.17128426586712
