30
 energy: -53.279209688304 gnorm: 0.000381007951 xtb: 6.6.1 (8d0f1dd)
N            3.87205131000843        2.35016453034603        0.07447058286010
C            3.00074491476711        1.28355769256313        0.00287653365658
N            1.71469690623230        1.66909962060558       -0.00370312621016
C            0.77117164788843        0.76835163440254       -0.00273349878521
C            0.77130343296437       -0.76819368438500       -0.00538058523010
N            1.71483247446556       -1.66864527291450        0.00070199772078
C            3.00102505708369       -1.28279798226034        0.00119524961512
N            3.87272473477791       -2.34942255026184       -0.06466706579126
H            3.45807200391176       -3.24240086750253        0.14567345093097
H            4.81379929457304       -2.21113201171126        0.26228419958371
C            3.56363804413855        0.00034405481776        0.00359785029643
H            4.64998911091186        0.00044068218645        0.00682701184855
C           -0.62620324586253       -0.74409814950333       -0.00803622400992
C           -0.62608929977358        0.74415854033932       -0.00620849501842
C           -1.71327432561561        1.61227212328889        0.01363035615343
N           -1.48880254914946        2.94538335466079        0.01442628970825
H           -2.26642212416776        3.57265923890610        0.11039198248054
H           -0.54271076024523        3.27267936990282        0.09396555954930
N           -2.99706588339529        1.24298040206741        0.01664658862748
C           -3.48135274385931        0.00036110805204       -0.01327534566967
N           -4.83719776467800        0.00097026533602       -0.04647465820771
H           -5.32431228290183        0.87608272562459        0.00809992375422
H           -5.32473625178134       -0.87492809606196       -0.01200906408553
N           -2.99718632450008       -1.24244167296676       -0.02121717750345
C           -1.71337743442995       -1.61203513962459       -0.01167344061217
N           -1.48961498825879       -2.94546190608183        0.01546204860003
H           -0.54442791447907       -3.27353609781178       -0.07246251836206
H           -2.26735217800053       -3.57254451009433       -0.08205419243579
H            4.81510628477511        2.21185462456379       -0.24670484942074
H            3.45876177750048        3.24316349171665       -0.13849691234312
