36
 energy: -66.002721256670 gnorm: 0.000916647325 xtb: 6.6.1 (8d0f1dd)
N            5.30063896126406        1.69696174398754        0.17074751729241
C            4.34846446513017        1.04499690183981        0.12489799398249
C            3.19359943775212        0.25428584631875        0.06099967979345
C            1.96798010923462        0.97728627765788        0.08136981811029
N            2.05192509516915        2.32006676338329        0.18772422486950
H            1.23285622775984        2.90161730197122        0.15827525391722
H            2.95534175852898        2.76299990339835        0.19776891816092
C            0.72149108679246        0.35694688196336        0.02049812309929
C            0.32768830805983       -1.08561598170984       -0.04092712865381
C            1.11525315744065       -2.24122078252277       -0.11097682674358
N            0.53013237891372       -3.45486185331671       -0.23349699044288
H            1.09880069333356       -4.28226732433764       -0.20664694603616
H           -0.46678436077982       -3.56495507285328       -0.16622949599607
C            2.51385471584165       -2.20839128964137       -0.09457074890414
C            3.41968994306133       -1.15143839405855       -0.01807998265794
N            4.72913102918481       -1.51839418468014       -0.01699390527884
H            5.45364293524553       -0.82309346000750        0.02705936632344
H            4.98581312477479       -2.48584788810446       -0.08220910887891
H            2.98172416544869       -3.18559443008630       -0.15267983828303
C           -1.02529974304736       -0.73327806076660       -0.01975705655023
C           -0.63304353416169        0.73286634966021        0.01101715350053
C           -1.44354263150884        1.85170856902141       -0.04301601785938
C           -0.89799278583669        3.14319519838052       -0.05046278489175
N           -0.49823307330736        4.22526715053550       -0.04900918626475
C           -2.87614211312017        1.78799098373748       -0.11438642089352
N           -3.68489636663924        0.75774146195701        0.00181331411026
C           -3.49552761032196       -0.54212983832184        0.12230169642159
N           -4.65443463395008       -1.22322803244634        0.35811183086958
H           -4.67984324563996       -2.22498521828952        0.27903080004880
H           -5.51089952958717       -0.70618199041001        0.26624687634607
C           -2.28914006744916       -1.30386591090170        0.04876162121545
C           -2.44326358562364       -2.69565378244379        0.07180936763354
N           -2.60849880682595       -3.83772835757224        0.08388202336990
N           -3.53794064947991        2.95750765270489       -0.34300609302773
H           -3.05887194701394        3.83877904991239       -0.28018677458821
H           -4.53925829014735        2.93801952153545       -0.26547609980943
