26
 energy: -42.359498719408 gnorm: 0.000962409489 xtb: 6.6.1 (8d0f1dd)
N           -4.02191424069933       -1.61185593835588        0.00657678788479
C           -3.00594324214731       -0.67668179857782       -0.02094798466143
C           -1.68542331943711       -1.18898489511381       -0.05753795479278
C           -0.58081978043575       -0.40156010742138        0.00974941778756
C           -0.46346107587089        1.11481175475744        0.00618647088066
N           -1.33405909460429        2.08088322946313        0.01499498483600
C           -2.63678535089780        1.85056014553612        0.07455191600467
C           -3.37846097380321        0.66829454662266        0.05386760469207
H           -4.45245300163350        0.82485162282439        0.08142711675347
H           -3.21755892584135        2.76619901357487        0.12176285286367
C            0.93700252277082        1.00512982727710       -0.06678335029449
C            0.83383615082850       -0.48557887767376       -0.05061174713430
C            1.83230360700445       -1.42585748217335        0.05030761322518
N            1.53612446964100       -2.75051888295012        0.15436252298016
H            0.58857880859771       -3.01272415024237        0.35796107743307
H            2.26384620381782       -3.39616877527605        0.40739236701961
C            3.21113515563311       -1.06080608305885       -0.05785678881970
C            3.76444688077420        0.18879838885146       -0.19346304335109
N            3.30890807204957        1.43586291005808       -0.04043408145408
C            2.05195197801183        1.80828751286294        0.06274639603485
H            1.90923981966033        2.86649920016362        0.26229696916649
H            4.83406229148249        0.19584448820402       -0.39765873863473
H            3.90111833825550       -1.89549185851463       -0.09773043679313
H           -1.58611145368328       -2.26645627496665       -0.15149490005738
H           -3.80907311880940       -2.53930751117890       -0.32012582429963
H           -4.95310857746425       -1.28849651489207       -0.19636176446964
