30
 energy: -53.279118322961 gnorm: 0.000761064717 xtb: 6.6.1 (8d0f1dd)
N           -4.93507652320293       -0.09983964815358       -0.02051082100376
C           -3.57130456013159       -0.03113524091451       -0.00299262184795
N           -3.04824477323705       -1.25885947648626        0.00162939711377
C           -1.75430813557770       -1.58802438410776       -0.01879636752846
N           -1.49589464570875       -2.91467443570053       -0.06972003201053
H           -2.25681259233308       -3.56528970645560        0.00238284983365
H           -0.54204904328881       -3.21982943307381        0.01003109970794
C           -0.67900172984200       -0.70595908102704       -0.00078938049925
C           -0.65190745631561        0.78467138905614        0.00976180108953
C            0.73776594652472        0.78980879454897        0.00812595966101
N            1.71572640328352        1.66322436016595        0.01262466623194
C            2.97442162854541        1.20437544756146        0.00483081429666
N            3.92093578715058        2.19150584373397       -0.06299817912018
H            3.62228291042729        3.12254951921068        0.16832484781989
H            4.86501608638840        1.92396921709737        0.15299933812013
N            3.49171511763024       -0.01911581640004        0.01279043889191
C            2.94258551260411       -1.22091255012547        0.01700470404634
N            3.85108099455343       -2.24048364327182        0.08762962333837
H            4.80879233970311       -2.01041910424294       -0.10978139516103
H            3.52004817279709       -3.16312353823481       -0.13194172097511
N            1.66368639543687       -1.64849369822456        0.00395811354133
C            0.71680398312699       -0.75123305910518       -0.00019176173660
C           -1.70950340727866        1.69376651703467       -0.01393016227116
N           -1.40609119444075        3.01710706754313        0.01945066990615
H           -0.43761517443520        3.26589132853902       -0.08931678711435
H           -2.11063448036468        3.70486913073169       -0.17894713469214
C           -3.04187349225546        1.27314878354605       -0.02828247431019
H           -3.78417304755475        2.06291606444364       -0.04663462153016
H           -5.34089963242774       -1.00988649017149        0.10875176393031
H           -5.49473667877704        0.71318409558265        0.16056970057196
