29
 energy: -50.347458011021 gnorm: 0.000391999735 xtb: 6.6.1 (8d0f1dd)
N            4.36995395334444        2.75748395946853        0.01206335416605
C            3.57825856502631        1.91892831052644        0.01081424014470
C            2.61462453955460        0.89992230532913        0.00780688103355
C            1.26842857435784        1.36458327332163        0.01321846745066
C            0.18790737298607        0.55870011609244        0.01112952446871
C            0.06208027701076       -0.90647817056472        0.00495888920177
C            1.04393289482382       -1.92419802917319       -0.00521937210490
N            0.57553021744517       -3.18971038448529       -0.01392156002927
H            1.19167843205029       -3.98211134725026       -0.01037799351426
H           -0.42197344924179       -3.32315046385260       -0.00139664065706
C            2.40174138111683       -1.65919964869657       -0.00881146930407
C            3.10136395238207       -0.42908039400045       -0.00175032431518
N            4.45509398287022       -0.55524939833695       -0.00030706633963
H            5.03808832636414        0.26406516484209       -0.00887381981400
H            4.88579116778660       -1.46080538308877       -0.02718221456679
H            3.04430568107773       -2.53359614046935       -0.01659110480290
C           -1.32137489215505       -0.83997676877267        0.01244745068756
N           -2.32914982007277       -1.70607100797778        0.02053182870785
C           -3.56677412731730       -1.28849062687213        0.02859020730570
N           -4.14602311012496       -0.08078914784322        0.01504488917810
C           -3.63816344756046        1.12442548224201        0.00665654717023
N           -4.56642986935730        2.11533890885271        0.00799784197431
H           -5.53414053299391        1.85085306628404       -0.04682841797132
H           -4.30698454449240        3.07952267045583       -0.08841791184857
C           -2.25422810370124        1.56342862167367        0.01367697738388
C           -1.25972490226530        0.66690443946175        0.01618554975728
H           -2.06319938273238        2.62960594119177        0.01276871948655
H           -4.30218850951316       -2.08959605276071        0.04184983198221
H            1.13764386563119        2.43973927140249        0.01948797576890
