25
 energy: -43.443292217093 gnorm: 0.000404700945 xtb: 6.6.1 (8d0f1dd)
N            4.34517642563306        2.16379848818047        0.00142091198786
C            3.45426818664165        1.43435344241104       -0.00013255409438
C            2.37770658143516        0.52841827179394       -0.00123062613378
C            1.09422666878947        1.12956512814568       -0.00134474627618
C           -0.07597809892381        0.44699155686525       -0.00248229275086
C           -0.37072063724246       -1.00726548329955       -0.00385906903537
C            0.50222885718549       -2.08741938756332       -0.00435144952541
C            1.87004407695839       -1.99366275474460       -0.00360048930132
C            2.71911940217242       -0.84718088017323       -0.00221567733525
N            4.04042289382185       -1.13031468761510       -0.00180036221369
H            4.36077582980379       -2.08242019912031       -0.00245943546804
H            4.71966399239172       -0.38681688125322       -0.00083041391453
H            2.41383099606033       -2.93100671376880       -0.00412689323921
H            0.06395753567619       -3.07709302025774       -0.00540937288030
C           -1.74760950629749       -0.76965341687569       -0.00433549078819
N           -2.85537465516163       -1.47715104444535       -0.00548566408879
C           -4.02502789340194       -0.87646601956726       -0.00556037998525
C           -4.36011261081872        0.50187182343766       -0.00455764802803
C           -3.57500130204735        1.63607632899757       -0.00320213046002
N           -2.22876402837974        1.77788943350107       -0.00241291719365
C           -1.48032982677072        0.73407803216492       -0.00292914817367
H           -4.08454844891415        2.59312922108292       -0.00264372027776
H           -5.42776249805833        0.69137494786360       -0.00492831522415
H           -4.86137186856287       -1.56718238474854       -0.00656626673350
H            1.06922326370963        2.21219410608860       -0.00046370256660
