28
 energy: -50.619897677217 gnorm: 0.000623614885 xtb: 6.6.1 (8d0f1dd)
N            5.65789550965425        0.61835425798969       -0.02922200834162
C            4.51653789909393        0.47566128632303       -0.02003238072374
C            3.11850442459432        0.29382665284000       -0.00899159770916
C            2.38759495902591        1.52270913277046       -0.00827462601218
N            1.10653988502859        1.76424362313290       -0.00439590463553
C            0.24312140372399        0.75163725637074        0.00229170597098
C            0.41254799549026       -0.75998642951299        0.00856424216344
N            1.42045184578710       -1.55002374172103        0.00537243765296
C            2.69125259824536       -1.04818088536752       -0.00232464159831
N            3.61485231192545       -2.03642586193808       -0.00403181196251
H            3.28400891797685       -2.98444350201761       -0.00082752093332
H            4.59910489696149       -1.83464853948264       -0.01164273522511
C           -1.02160919084530       -0.88283979051211        0.01009692601293
C           -1.12706642846223        0.59079622154865        0.00180442364550
C           -2.28417529393665        1.41473212939863        0.00625661105890
N           -2.06435226083659        2.74561207180310        0.01199456007444
H           -2.82125751230517        3.40505467923663        0.01860038759357
H           -1.11221690511682        3.07022930640543        0.01123876067329
C           -3.55429407356933        0.87841717503767        0.00405074884653
C           -3.95481669363313       -0.49455059604036       -0.01126537258356
N           -5.29757086738247       -0.68565263328358       -0.04306677611060
H           -5.94907200694005        0.07659781165587       -0.06891889566553
H           -5.62909676977696       -1.63391116521338       -0.05888290016477
N           -3.30829208714339       -1.64904668980003        0.00599605012221
C           -1.98379779258604       -1.84109992298294        0.02196744638671
H           -1.70114198318850       -2.88827634426057        0.04091921987513
H           -4.37426874113052        1.58726354468039        0.00465728724607
H            3.00570158024573        2.41521560543963       -0.01326715145667
