25
 energy: -42.650283513666 gnorm: 0.000592273820 xtb: 6.6.1 (8d0f1dd)
N            4.95599268792462        0.33854578257946        0.06366483538496
C            3.58571127745735        0.25979503042044        0.02036430903155
C            2.88614422147263        1.43631398564157        0.01920119210045
C            1.47515299937552        1.65593067297190        0.02580947498248
C            0.56298612367610        0.66997750799139        0.01874672620892
C            0.67521936213546       -0.80083851003022        0.01560586707734
C            1.84432611024314       -1.60071751925174        0.02885835297775
C            3.10366917952432       -1.11853563744816        0.03375970131240
H            3.90603784479778       -1.84708798506020        0.05125984690653
H            1.69622059817840       -2.67273467303818        0.03759444164551
C           -0.69837654850635       -0.96733645527087        0.00555878475216
N           -1.58649530569580       -1.97438745065378       -0.01054246630100
C           -2.85237719099704       -1.70090331722181       -0.02365951261432
N           -3.55767123936648       -0.54549364401991       -0.02204481581162
C           -3.16875676566257        0.69199138322501       -0.01070105070438
N           -4.14001547895857        1.62699335782131       -0.01076658267966
H           -3.88234541460585        2.59683621439698        0.00127152546451
H           -5.10108527436364        1.33779371152291       -0.01400126943195
N           -1.90472951109148        1.29103976263260       -0.00045428135014
C           -0.89083290140418        0.51828185157447        0.00792054807155
H           -3.50584544212600       -2.56890432712871       -0.03874077120431
H            1.14153021287181        2.68456688145968        0.02578213540347
H            3.48831109582254        2.33732746099241        0.01243465025307
H            5.38988710760863        1.23116680935635       -0.09833820672458
H            5.50039849458965       -0.47364102906291       -0.16800917375067
