30
 energy: -54.074561532944 gnorm: 0.000939188618 xtb: 6.6.1 (8d0f1dd)
N           -1.59944871250945       -3.78545122218953       -0.10418500061670
C           -1.62496203395493       -2.63700306206908       -0.05494989471706
C           -1.70287644982707       -1.23224647369637       -0.00633998828640
C           -0.55399290599054       -0.49095948245378        0.00337605995276
C           -0.34809527898308        0.99569539337386        0.05770135022680
C           -1.28450764108985        2.00065974387604        0.10923612958138
C           -2.66692962223826        1.77073280503720        0.09551407551068
N           -3.49163032388860        2.87213607773178        0.06235087434103
H           -3.13616832186492        3.75115935393969        0.39624207035575
H           -4.46605775559552        2.68453925341351        0.22734935877400
N           -3.36173842586389        0.63205470913035        0.06046500364906
C           -3.01638187403809       -0.62929287892242        0.01963701243291
N           -4.07182896845147       -1.48881587084586        0.03526919085473
H           -4.99409779256773       -1.09889885014195       -0.03417205266031
H           -3.93334594481962       -2.47396712628376       -0.10331236202539
H           -0.95762880772650        3.03233191874757        0.16471021429917
C            1.04084256761281        0.80186304622620        0.06075189689543
C            0.85480378276536       -0.67873944486637       -0.00436977569974
C            1.78434037492403       -1.65965519379890       -0.18866265318155
N            3.10427287318659       -1.49449537619002       -0.12339063188468
C            3.74535580288416       -0.34345146719208        0.06429483231413
N            5.04257927816868       -0.52564347930687        0.39760243700705
H            5.64872930145827        0.27099275997618        0.46808750756993
H            5.40176259182482       -1.46184423877685        0.44379732639625
N            3.44624396556023        0.95413737290830       -0.09821473920161
C            2.23756543005026        1.50140719013432       -0.11897229425460
N            2.22191815790986        2.85026878037582       -0.27642720016603
H            3.08210941659107        3.28807877203391       -0.55883828640983
H            1.35347335696089        3.30536356100819       -0.49241875264116
H            1.47265640231384       -2.68290666457862       -0.37137226731572
