31
 energy: -54.603887582071 gnorm: 0.000447305115 xtb: 6.6.1 (8d0f1dd)
N            3.47070264204808        2.93035324433663       -0.00765849761325
C            3.22644149242773        1.80633953965561       -0.01053344700371
C            2.90927570903263        0.43247203698328       -0.01256089209474
C            1.58212340583903        0.05194574557952        0.00610555727397
C            0.99548200153331       -1.33565967106089       -0.00135324493185
C            1.60095575517347       -2.56032941017125       -0.03610189355285
C            2.98186881874609       -2.76978400483256       -0.05675114510038
C            4.01443874201659       -1.83844242471327       -0.05288442124989
C            4.00519872209617       -0.45311298737374       -0.03406248689218
H            4.97660685366621        0.02693087990838       -0.03983789872349
H            5.00783069750312       -2.27270984170520       -0.07098684253589
H            3.29519332259691       -3.80601921098435       -0.08042953686945
H            0.98130011808982       -3.45034895478943       -0.05323195677766
C           -0.29989442372977       -0.76306786593063        0.01202136427847
C            0.27681882022483        0.59243556427361        0.01716939025226
C           -0.37691152859767        1.82995296415220        0.04675382200018
N            0.30622883057283        2.98525068541226        0.14197038318853
H            1.31189931777737        3.02127379442155        0.13037882819700
H           -0.22360538350705        3.83921183621707        0.12337961290529
N           -1.69898254760036        2.00429434464101       -0.01327608205500
C           -2.68165647996846        1.12474123334188       -0.05368082999048
N           -3.88827531855380        1.72885902980158       -0.16938701789621
H           -4.74324893022426        1.20085994824401       -0.18124705601684
H           -3.90773569434563        2.73238911237469       -0.19377251105060
C           -2.71330490419778       -0.30514190219122        0.01888759564110
C           -3.98582739730378       -0.88912213112593        0.04493823068072
N           -5.02678398368099       -1.38590690517590        0.07468894236846
C           -1.61800541716933       -1.20508958960271        0.04336318568478
N           -1.87608488804140       -2.53355662723593        0.07634889217325
H           -1.11900436118959       -3.18640356814749        0.14885210518467
H           -2.82376541303363       -2.86342577090246        0.13859840782619
