37
 energy: -70.528489276898 gnorm: 0.000751906059 xtb: 6.6.1 (8d0f1dd)
N           -6.26389571507643       -0.80470519327739        0.02913082921250
C           -5.12435494786666       -0.64178446745331        0.01262585166054
C           -3.72677272536256       -0.45466951468613       -0.00265085521047
C           -2.99135589070393       -1.67972999205166       -0.03196400827577
N           -1.67570824001743       -1.88842692256393       -0.02332446304280
C           -0.79993434633102       -0.92494047291279       -0.01245256407884
C           -0.86076764532997        0.59420501288768       -0.01409045489686
C           -1.98133452825200        1.40012149121019        0.00389452582424
C           -1.82401970689838        2.79658381361244        0.01819601999885
N           -1.68312842273429        3.93989372484183        0.02940641156005
C           -3.31990445062981        0.89924704571911        0.01571128040351
N           -4.30329682546144        1.83706260159252        0.04596816553094
H           -5.27002689247596        1.56294209786964        0.05585652682123
H           -4.07165949029235        2.81467816937409        0.06136348453996
C            0.54673179978602        0.62669401927255       -0.01301786682243
C            0.59485345580397       -0.86169538452301       -0.00485646238842
C            1.61396698931809       -1.80203861103774        0.00839010319848
N            1.25770254076552       -3.10228039812681        0.01666780363993
H            0.27557594951681       -3.31930800162653        0.00360505979541
H            1.94869963873351       -3.83253053488782        0.01910727152480
C            2.98641715136597       -1.44183664466822        0.01736816014101
C            3.87715395695443       -2.52556390860848        0.03523165231023
N            4.58220490719664       -3.43838826404201        0.04873397397266
C            3.56853185755723       -0.14414465953187        0.00871898371310
N            4.92268692327770       -0.13850758566965        0.02321402786721
H            5.43123964386159        0.72922443129732        0.01629432300345
H            5.43110973372854       -1.00641748343716        0.03726947866829
C            2.96223412579893        1.14107153633475       -0.01433831398763
C            3.86979865933267        2.21406522993344       -0.02517833160900
N            4.60322185799579        3.10439958307000       -0.03418855179954
C            1.58982199899665        1.54581960337321       -0.02459823947659
N            1.33468745708363        2.86910668546489       -0.05221200346311
H            0.39189503747315        3.21908772890469       -0.04348984709529
H            2.09448715263208        3.52891089531467       -0.05139788821445
N           -3.70241398894695       -2.83478408729913       -0.07933297390020
H           -4.70581061799736       -2.84113211896713       -0.04264786134730
H           -3.19116954860235       -3.69808081080313       -0.05977962647702
