30
 energy: -49.258276963531 gnorm: 0.000507453973 xtb: 6.6.1 (8d0f1dd)
N            4.05098078751655        2.29002226109920        0.04928058527689
C            3.09092865607255        1.30177210898756        0.00370758292070
C            1.73096687905230        1.77994415660584        0.02299111099195
C            0.68185766283759        0.94870931665275        0.02412249438594
C            0.60626958202446       -0.55072820163321        0.02131163744746
N            1.52232435557855       -1.51779605714099        0.03640842053031
C            2.80537252083649       -1.25125366600438        0.02733335655936
N            3.60995368933650       -2.37403459039837       -0.03134928334798
H            3.12983200358968       -3.23578760840396        0.17362357371804
H            4.54305626176189       -2.30151835935528        0.33818505752477
C            3.51068009711974       -0.00475558588008        0.00162932520644
H            4.58937073872268       -0.13258521780834       -0.02046558438738
C           -0.77466584328911       -0.49920312671206        0.02486492095495
C           -0.77195211809418        0.97805002337825        0.02386050544976
C           -1.78543045251673        1.86581682366315        0.00284491185803
N           -3.10958624622341        1.58632911320377        0.01831504701686
C           -3.66834211175401        0.39897413031079       -0.00073702745639
N           -5.03582826762032        0.48412855745049       -0.02319467711395
H           -5.41889136746140        1.39964199928315        0.14047511493585
H           -5.59666557801745       -0.31391754518413        0.21541146092908
C           -3.17363136699319       -0.94583863623749       -0.05184053960071
C           -1.87194242456088       -1.39252825695582       -0.02484173192953
N           -1.56911518373968       -2.71767973986575       -0.00974291401097
H           -0.59932516656657       -2.95859136824290       -0.12879133060532
H           -2.27029549872373       -3.39955330912573       -0.24026278496546
H           -3.94446586377642       -1.70709088943664       -0.09977833476284
H           -1.58284010808946        2.93266967799002       -0.01069761733314
H            1.58825403412887        2.85408073723319        0.03115787254476
H            4.99615058262852        2.03375089978663       -0.18295517482570
H            3.77365861892003        3.21650881534061       -0.22751771221184
