30
 energy: -49.262856116395 gnorm: 0.000874696806 xtb: 6.6.1 (8d0f1dd)
N           -5.14843538267002       -0.38014308181867        0.09149604917220
C           -3.76843267448990       -0.37585052157530        0.02278849043821
C           -3.15967343338066       -1.61344784633154        0.00932113256431
C           -1.78069666169713       -1.94559343829502        0.00990807665647
C           -0.78659761770252       -1.03580864387141       -0.00440056462511
C           -0.80846039950613        0.43745308509011       -0.01283175703713
C           -1.90136729956397        1.34752499868892        0.01177470358217
N           -1.55621676956783        2.66428444017574       -0.02856627875941
H           -0.57990833737313        2.87264750569076        0.10319182781104
H           -2.23477905652377        3.36959255538557        0.20046376098748
C           -3.21141498862258        0.94564089439019        0.03532660976376
H           -3.94968204975402        1.74018436560956        0.06514873201794
C            0.56912384844527        0.51405845940433       -0.00308670841323
N            1.48686638638313        1.48404635462328       -0.00680990151590
C            2.76430054383917        1.20002608895728        0.00679649700022
N            3.60798737466408        2.28310225324587        0.07366773203015
H            4.56450035685926        2.10964583394102       -0.18248590499065
H            3.21140087117512        3.17196501824555       -0.17848694421037
N            3.46327632165446        0.03464012902753        0.01368289358118
C            3.07858148944939       -1.20526176510993        0.00878560018062
N            4.10025814933234       -2.11189118304960       -0.04356695200587
H            3.92652969892541       -3.07174265443087        0.19577550206939
H            5.02919762008263       -1.75168034499988        0.09358682494282
C            1.74491420745388       -1.77975419199476        0.00209167908640
C            0.66665086559465       -0.98755394584129        0.00032609998316
H            1.66267289132108       -2.86004110950666       -0.00456359847405
H           -1.53536749740640       -3.00050714280508        0.01581644146809
H           -3.83635135949516       -2.46021326432846        0.00700738180801
H           -5.63495701306370        0.45758932421298       -0.17816849611074
H           -5.61944003536295       -1.24278849563026       -0.12465732410117
