25
 energy: -48.241320629751 gnorm: 0.000578993205 xtb: 6.6.1 (8d0f1dd)
N            5.71109431991776        1.08549854018506        0.00440050743739
C            4.63715629057589        0.67939742726917        0.00312031585633
C            3.32790450908536        0.15347270623448        0.00168986907627
C            2.28314116730914        1.03999630185963        0.00084105863153
C            0.94302170333807        0.62773689170430       -0.00024305783595
C            0.40909467440679       -0.75356117749916        0.00063316287617
C            0.99266844750263       -1.95683683222719        0.00187305914859
N            2.35367070015091       -2.18508689223896       -0.00014610158007
C            3.28619630260283       -1.31923984601233       -0.00042699825351
H            4.28145057674385       -1.76144639574481       -0.00294005936910
H            0.41013764801200       -2.86991392972612        0.00349960014851
C           -0.94452195875022       -0.18057104479511        0.00057215184195
C           -0.34039041730128        1.16835137375472       -0.00022713360624
N           -0.87880970126663        2.39293621127120       -0.00029443161998
C           -2.16027674432444        2.56365165115743        0.00028681377265
N           -3.21984985279116        1.72609796025002        0.00035618937342
C           -3.31587962146960        0.43415318344975        0.00051243321126
N           -4.56489290566730       -0.06075198093000       -0.00004034874006
H           -4.74429873404166       -1.05097286725588        0.00022289689876
H           -5.33113896357037        0.59144611059771       -0.00051937908291
C           -2.23183352393360       -0.58273347652591        0.00115467690957
C           -2.58936629191223       -1.94459219557434        0.00192472343123
N           -2.92925228338023       -3.04175183975452        0.00301131572061
H           -2.47613716951554        3.60292329768906        0.00056317842948
H            2.49090881017899        2.10281542386175        0.00122049952400
