23
 energy: -43.997643028285 gnorm: 0.000894097183 xtb: 6.6.1 (8d0f1dd)
N           -1.82410103115499       -3.29777832206922        0.07423384935867
C           -1.67745971623702       -2.15921922303270        0.05093966666338
C           -1.54317022803104       -0.75622805472217        0.01255500510310
C           -0.32180603875475       -0.16870530203427       -0.01820419767100
C            0.05123324776956        1.29195395050265        0.07037542011435
N           -0.68044813678429        2.38907960755641        0.11421706948447
C           -1.98390169853827        2.35015616178047        0.05127818740078
N           -2.88062149497660        1.36141441187072        0.02028328904584
C           -2.76165369708018        0.06093132700172        0.02019959539120
N           -3.92755962473232       -0.61598096392081        0.02293448858683
H           -4.78068357239693       -0.08394236664443        0.03150656270060
H           -3.95556241284948       -1.62124846340164        0.03230228547760
H           -2.45594417336643        3.32870691901942        0.04416694639807
C            1.39907419525236        0.95747193870553        0.14460671867760
C            1.07465710534038       -0.50256491127454        0.01277006980059
C            1.90722787023385       -1.53604299071857       -0.26530460564069
N            3.23097945517964       -1.49279937380709        0.00473992959977
C            3.92572754535151       -0.43259553378973        0.23282700614850
N            3.76274085285520        0.85208810144154       -0.14119461258635
C            2.65370391372629        1.51298470976953       -0.16817609774240
H            2.70732990514000        2.54239068737756       -0.50819965419916
H            4.89177795771643       -0.61151107070940        0.70126402728861
H            1.53477494843695       -2.50234988420129       -0.58316848669944
