34
 energy: -57.737698128062 gnorm: 0.000783853590 xtb: 6.6.1 (8d0f1dd)
N           -5.53672800491698       -0.55719198835154        0.17663852563286
C           -4.39232886011324       -0.46750091596510        0.07917900573503
C           -2.98710003550557       -0.37356422856898       -0.00003908972397
C           -2.33574863814448       -1.61903781041932        0.02516622863034
N           -3.12312943134846       -2.74258288318535        0.03070366750335
H           -2.70302927804739       -3.62168241533118        0.27536477927802
H           -4.11224945693414       -2.64979704690806        0.19091163654396
C           -0.93736564138579       -1.87969330249256        0.00072955000185
C            0.03027588264049       -0.93895097723467       -0.03992724561085
C           -0.05636943454582        0.55873831075164       -0.03777458758516
C           -1.17191621983726        1.40063011920648       -0.05942331810270
C           -0.92013142899065        2.78580506586493       -0.05956696443827
N           -0.71921613108441        3.91877338469567       -0.04223854269121
C           -2.50837169862728        0.97611452129192       -0.07296584476536
N           -3.46768226469440        1.95112902406398       -0.19644439364801
H           -3.18436284565104        2.90910987347276       -0.07669555557115
H           -4.42985506770325        1.72623155318451       -0.01037384551550
C            1.32937082103586        0.65106031109699       -0.01293217889627
C            1.45802197063260       -0.83417527957865       -0.03100829472683
C            2.55910455309173       -1.64170182130129       -0.05868448943615
N            2.42428989925493       -3.00896325545064       -0.06549223236021
H            1.52788896032541       -3.37634933123844       -0.33359022618522
H            3.22219298890139       -3.55539481634833       -0.34403132854143
C            3.89359915697278       -1.13461043997147       -0.01027897610269
C            4.36110722960999        0.15750412100285        0.03768136996102
N            5.72359637846303        0.31336822169949        0.03777802950264
H            6.30655146637459       -0.48723564328489        0.21051906388429
H            6.10924034843171        1.21132867680292        0.27138144270134
C            3.65001698044101        1.41215241976908        0.03176299340296
C            2.30883685314897        1.64433755674674        0.00776086382620
H            1.96816786765441        2.67243260254311        0.00637777692729
H            4.29657619874012        2.28052747968967        0.04791348379774
H            4.65915549319819       -1.90369690466259       -0.00748607539548
H           -0.66326887308532       -2.92896045098959        0.03079134256975
