30
 energy: -54.087116400648 gnorm: 0.000634059198 xtb: 6.6.1 (8d0f1dd)
N            1.32888691863587        4.02977729593749       -0.01773221486007
C            1.60792550958251        2.91276204423983       -0.02157215889036
C            1.88057515578684        1.53333574784850       -0.02337147599324
C            0.82204251624052        0.64565916907267       -0.01104785527109
C            0.87643412742599       -0.88187542095111       -0.01101054749557
N            1.82577069642072       -1.76954465300143       -0.01200084153820
C            3.12073636023108       -1.43645281884710       -0.02922427415667
N            3.95089008582792       -2.53157210647266       -0.09588848047896
H            4.91249524224129       -2.42675156896809        0.17669275979824
H            3.51728257603240       -3.41788512899574        0.10026312772401
C            3.74004219750106       -0.16755243858937       -0.03858631066444
C            3.22730746679846        1.11238792920406       -0.03618555307495
H            3.95798225852273        1.91299979136171       -0.04337987417586
H            4.82361956730703       -0.22133935445699       -0.05273714630508
C           -0.52323993446473       -0.91174525700312        0.00161180215195
C           -0.57640527293172        0.57025860137135        0.00265602317496
C           -1.72480044970545        1.37458345601195        0.03449059228908
N           -1.63082852058102        2.71682914653601        0.07994643051419
H           -0.74207005933280        3.18933904753896        0.05999539755249
H           -2.48337814830899        3.24823668514617        0.08640050417974
N           -2.97429774463037        0.90992887415819        0.02561546894318
C           -3.40392312792649       -0.35096523535889       -0.00658501675690
N           -4.75502116251752       -0.41436463856560       -0.06051011324241
H           -5.28500081887187        0.43705772976509       -0.04236935803278
H           -5.20182522612279       -1.31238037794641       -0.05409350970683
N           -2.85524001256013       -1.56733052225710        0.00766295976947
C           -1.55419074273275       -1.85146475624841        0.01765677842787
N           -1.23281462508747       -3.16127616763896        0.05300458740409
H           -1.96284862684542       -3.84793297865508        0.00229274663239
H           -0.26421606314088       -3.42051805263355       -0.00736231441668
