30
 energy: -55.651931469715 gnorm: 0.000662530538 xtb: 6.6.1 (8d0f1dd)
N           -5.97821301333110       -2.06809040649892       -0.00271755528402
C           -5.07005173923521       -1.36467764448499       -0.00296486298475
C           -3.93366320954841       -0.52954642408427       -0.00134850778747
C           -2.65614127721805       -1.24264893107758       -0.00165721687641
C           -1.50250170204569       -0.58098467162925       -0.00153150021043
C           -1.18842649721698        0.87148591578613       -0.00039556471753
C           -2.07563336822960        1.96202873154659        0.00153916607631
N           -3.37129086645081        1.92605340640327        0.00141353240409
C           -4.16371402624857        0.82116862798824       -0.00055280692099
H           -5.21229510143908        1.11242423561220       -0.00119961378399
H           -1.65051791006792        2.96273304320218        0.00353498353900
C            0.18195110242555        0.60810103115504       -0.00059117169147
C           -0.05293121900901       -0.83754044134548       -0.00185631802015
C            0.75713026833705       -1.90342201266678       -0.00298678272228
C            2.19484016646804       -1.83150565411957       -0.00318248820919
N            2.81182305129178       -3.03466359439495       -0.00459497868803
H            3.81566404480047       -3.10301359410190       -0.00489642473594
H            2.27058238323940       -3.88022940627471       -0.00548790110819
C            2.98468346664176       -0.67819439954879       -0.00213404039276
C            4.37240014999455       -0.94339448404690       -0.00354521139556
N            5.49773102705000       -1.18402756823832       -0.00252376685150
C            2.66746388215138        0.73525186167585       -0.00043480162767
N            3.73615749850594        1.57185421146398        0.00107669471819
H            3.58526456812476        2.56612661005594        0.00125643557872
H            4.67693227423605        1.21950387465464       -0.00061930248491
C            1.39878929377417        1.32029880244411        0.00014038766697
C            1.31873836956064        2.72603365869444        0.00208485550897
N            1.26944103570521        3.87478104133179        0.00150515341922
H            0.32859234249546       -2.89758994302718       -0.00392221671109
H           -2.69972461686173       -2.32320338487484       -0.00242341750716
