31
 energy: -49.771453162067 gnorm: 0.000538887794 xtb: 6.6.1 (8d0f1dd)
N            5.48542587403053       -0.00410531221604        0.16628416062393
C            4.33712504283743        0.00796729065158        0.06593954664592
C            2.93041659409633       -0.00177210611946       -0.01378310651671
C            2.33429940111670        1.32169282417020       -0.04655219290460
N            3.23841021796461        2.36688661377250       -0.14658855376282
H            4.19358443481065        2.19440574865179        0.12122429714633
H            2.88740073953321        3.28270486524424        0.07732623985299
C            0.99866782205672        1.64516395272895       -0.04151677277270
C           -0.05780939722168        0.73409110397393       -0.03313790704737
C           -0.02334439112163       -0.74547982342162       -0.04307083996718
C            0.98244845817633       -1.63100855017540       -0.05101212454172
C            2.37569680881650       -1.28113331545120       -0.03413143734815
N            3.22164470724228       -2.35361669687726       -0.06842587375265
H            2.85289781953859       -3.27262936221747        0.09722320614428
H            4.21060648695836       -2.21473071735353        0.05174289069767
H            0.76092803117196       -2.69184276435374       -0.06365465371473
C           -1.48186247620142       -0.75617970310527       -0.03602613517250
C           -1.45006598935652        0.72554995781138       -0.02573381979758
C           -2.52326425617403        1.62986473940296       -0.02211206829617
C           -3.83418025971862        1.28097334130587       -0.01488949513240
C           -4.44698738452976       -0.03619296836760       -0.00558130736626
N           -5.82293320998269        0.01791466108122       -0.04616245763300
H           -6.27629407022505        0.87370603291456        0.22504547842431
H           -6.33282763553836       -0.82888859162957        0.14050243104999
C           -3.87201347096393       -1.27953043187151       -0.01291830866296
C           -2.48953197191966       -1.64183923453134       -0.03505969088790
H           -2.27222705331293       -2.70270317344180       -0.04283111923659
H           -4.56308082285087       -2.11466254116364       -0.00478617908671
H           -4.55550813235497        2.08976908745141       -0.01981877134912
H           -2.28057477306933        2.68625868674146       -0.02559435030285
H            0.74741580109128        2.69912786939430       -0.05465900093293
