30
 energy: -50.064031555464 gnorm: 0.000735388074 xtb: 6.6.1 (8d0f1dd)
N           -5.30648874964842       -1.43196703588421        0.07105968557733
C           -4.35481193255881       -0.78122286512619        0.03327633970811
C           -3.17973932960821       -0.01732847438788       -0.00369444124547
C           -1.97619250561794       -0.73790142696453        0.02199224467560
N           -2.01212986707550       -2.09192840171005        0.04704418606461
H           -2.89494560719307       -2.56502990058686        0.14491823775802
H           -1.16168648763141       -2.60452058244293        0.18969836583856
C           -0.71657540234175       -0.10569983914943       -0.00089433510640
C           -0.37897377667630        1.33164413228037       -0.01637150163025
C           -1.11019595703844        2.45489186850964       -0.04898889428448
C           -2.54408479873898        2.46070534243984       -0.07551244978366
C           -3.39122895630855        1.40235796227709       -0.05707695360763
H           -4.44782521014518        1.65157468757438       -0.07896403073995
H           -2.99874097423562        3.44197886421999       -0.11335334701376
H           -0.61372890933368        3.41656451280365       -0.06051203276060
C            1.03574472138545        0.96065146509765        0.00548980438510
C            0.63453622151276       -0.46797977576962        0.00789578190315
C            1.45905345773527       -1.58954242822027       -0.00886242339933
C            2.84353804551004       -1.52929031604170       -0.01214863961615
N            3.54766142161356       -2.71486721986648        0.00997809548230
H            4.53061901500504       -2.63129264750844       -0.18741571550808
H            3.09197918177212       -3.54703176962493       -0.32279772665312
N            3.68564939280321       -0.47164966570069        0.01979774187988
C            3.47358134229347        0.80824476794700        0.06166836874181
N            4.60174248524900        1.56396889548551        0.16132747884067
H            4.56884884277937        2.55689216221296        0.02090785463585
H            5.48657374011639        1.09215021784398        0.09979222922176
C            2.23155638342037        1.55850960000260        0.03316103895473
H            2.30773169161843        2.63838293169200        0.03971333117954
H            1.01632627693743       -2.57830160810231       -0.03057935989775
