26
 energy: -47.963132508063 gnorm: 0.000846816812 xtb: 6.6.1 (8d0f1dd)
N           -5.20876057873669       -1.06621068153357        0.02502066502644
C           -4.07026286775625       -0.91687728444693        0.00231866137194
C           -2.66493746026047       -0.73780297233614       -0.02603451566285
C           -1.96574946671126       -1.96330402890240       -0.07924824371786
C           -0.61042031350551       -2.22125496212367       -0.10886381111090
C            0.36389162818245       -1.24446058073810       -0.06018553878609
C            0.21537433504962        0.24029725443813       -0.03552150461641
C           -0.88134199201327        1.05585896692252       -0.04475444236886
C           -0.65367804977246        2.45267623592857       -0.07644022679117
N           -0.48123078228162        3.58696023248494       -0.09959471389527
C           -2.24421547365432        0.60805156612643       -0.01220176444545
N           -3.19390587777473        1.57577272835260        0.03395981569182
H           -2.93162591156901        2.54626323338012        0.03256237871254
H           -4.16945109631919        1.33286107449071        0.05140442646742
C            1.63656968972255        0.38244936552101       -0.06281782098909
C            1.76134962725094       -1.11782104832081       -0.09818648743793
C            2.90671293287433       -1.82647333606567        0.24513298455116
N            4.11979489544119       -1.34648542361029        0.16286768708712
C            4.45989608493700       -0.11051804280354       -0.20749603382898
N            3.91288501237891        1.04822858892431       -0.00203614985862
C            2.61126453537326        1.29478219022536        0.20663388655450
H            2.37508138075138        2.31210453288101        0.49773453635938
H            5.45419463089187       -0.06191645639731       -0.64963195703800
H            2.82967018866931       -2.85052024885649        0.59904707715080
H           -0.29430130553416       -3.25364825360248       -0.17475218735430
H           -2.61624818072360       -2.82966021353510       -0.10140789967325
