28
 energy: -51.422665329186 gnorm: 0.000829639110 xtb: 6.6.1 (8d0f1dd)
N            4.97147560595422        2.46778883169341       -0.00317189913560
C            4.14274321860051        1.66713437509925       -0.00318659409982
C            3.14521790050880        0.68064677491782       -0.00312548630479
C            1.83128097175336        1.12720195129384       -0.00258173786409
C            0.73793249026942        0.28824180546142       -0.00244890507579
C            0.69198121627059       -1.20207481218887       -0.00259303842787
C            1.69451869177511       -2.11550313333978       -0.00291271568937
N            3.01370386323818       -1.86792738752715       -0.00356820286730
C            3.62561469469458       -0.70483302314872       -0.00380254852871
N            4.96641562886690       -0.83007373668097       -0.00483220219845
H            5.34681247738263       -1.76140639734035       -0.00530560955393
H            5.57391456700832       -0.02754523988658       -0.00502247515518
H            1.46541727437973       -3.17677006956641       -0.00267479130882
C           -0.73911103846845       -1.15635892652743       -0.00199710338461
C           -0.66230067347316        0.34868419072700       -0.00188471672947
N           -1.55909517027808        1.30357570867295       -0.00139495468055
C           -2.86042075217597        1.08758755755842       -0.00075506620141
N           -3.60437200296640        2.21989703912087        0.00023803589123
H           -4.60835381299719        2.19810356686028       -0.00032873141771
H           -3.11431299638748        3.09649667169036       -0.00036245937499
C           -3.58280845940209       -0.17194994215811       -0.00078381669104
C           -4.99136334670614       -0.03900424074966       -0.00013079729930
N           -6.13488978027570        0.07041275036467       -0.00006166254423
C           -3.13785847994707       -1.48137079816879       -0.00129420249642
C           -1.81717738550291       -1.97781881711884       -0.00183460702245
H           -1.68585535650866       -3.05195979318711       -0.00212319131367
H           -3.92261450445854       -2.22969982319618       -0.00129470270481
H            1.66500364464550        2.19757634372467       -0.00233237182085
