25
 energy: -48.249723184524 gnorm: 0.000529273043 xtb: 6.6.1 (8d0f1dd)
N           -4.44268447222855       -2.86815174055762       -0.00119211496309
C           -3.58558062185538       -2.10537824763352       -0.00027270606309
C           -2.53549178841682       -1.15691176211447       -0.00042504981009
C           -1.25760599523079       -1.64849298432078       -0.00139079259947
C           -0.10620930966803       -0.84218603467736       -0.00135008545144
C            0.01173763729895        0.63019052390781       -0.00029870392260
C           -0.86892568343237        1.62937037280395        0.00091805986810
C           -2.31260205507144        1.39583256838807        0.00136601141297
C           -3.09070253976252        2.57910937838701        0.00408474007425
N           -3.70212662728662        3.54955462558846        0.00237499646758
C           -2.99338872934096        0.22082389141064        0.00080447885827
H           -4.07614190638315        0.30524974364679        0.00156952254594
H           -0.54123616110713        2.65912198968860        0.00163937065730
C            1.47954800705079        0.45785527179002       -0.00113436970831
N            2.49231211372785        1.22842056178012       -0.00104371752542
C            3.75973257561121        0.62830842631506       -0.00210882663491
N            4.72771030076842        1.55167963760839       -0.00179550255445
H            4.47746861840439        2.52515637522009       -0.00088910839091
H            5.68905198943709        1.25810302503847       -0.00248934715480
N            4.13462720912611       -0.61676567243718       -0.00329769574818
C            3.42277365643697       -1.76379043244760       -0.00385601013681
N            2.15381776567171       -2.02529308718705       -0.00338218704361
C            1.27529756433595       -1.00869562245996       -0.00213906400159
H            4.06687843563377       -2.63806937979082       -0.00491771924155
H           -1.11383963831947       -2.72162271384713       -0.00221596323410
