28
 energy: -51.424558514036 gnorm: 0.000433480751 xtb: 6.6.1 (8d0f1dd)
N            5.63005398488697        0.82584311860171        0.00172490847865
C            4.49142713517149        0.69075057849606        0.00136425167434
C            3.08095044702242        0.53072228863219        0.00024164810329
C            2.37901209057607        1.75040438866309       -0.00094098206511
N            1.07443023515106        1.99954614739442       -0.00221255098480
C            0.18967325258977        1.05328697651921       -0.00255827432237
C            0.22746462253634       -0.48300274641165       -0.00175890258669
C            1.34135834272906       -1.29847446883376       -0.00031309281036
C            1.15712671755603       -2.69755054277520       -0.00012716164475
N            0.94204424155683       -3.82668656283251        0.00087325857156
C            2.65646252642290       -0.80298140800297        0.00059121248653
H            3.44477822853307       -1.54718452717190        0.00161237302959
C           -1.17555399087333       -0.48439733906466       -0.00330036637399
C           -1.21245834103274        0.98888277526286       -0.00401490676390
C           -2.26394580165068        1.90625172846827       -0.00579319377415
N           -1.95861755812448        3.21470179391619       -0.00584212860150
H           -2.67463071700561        3.91915255026681       -0.00759472895691
H           -0.98729029011988        3.48058712652444       -0.00495127447484
C           -3.60634902744728        1.47324463118755       -0.00749240050035
C           -4.08619691689617        0.17491782643361       -0.00762343154932
N           -3.55235338159856       -1.03386677365433       -0.00620674112273
C           -2.26384851934471       -1.38314689958152       -0.00419926168451
N           -2.06196250960885       -2.70864652093662       -0.00305420782390
H           -1.14218194942665       -3.12028975797395       -0.00162222134552
H           -2.87608356177284       -3.30004600102014       -0.00385480047344
H           -5.17315184737635        0.10351797094873       -0.00925684383806
H           -4.35533616713052        2.25448907741969       -0.00894840439946
H            2.98610267707665        2.64939872732440       -0.00079531984726
