30
 energy: -54.867703615000 gnorm: 0.000637909446 xtb: 6.6.1 (8d0f1dd)
N           -5.80927651164202       -1.45737049211625       -0.00767972262244
C           -4.71480018590884       -1.10596824095318       -0.01412504865067
C           -3.37202329582873       -0.66519611623518       -0.01486053806513
C           -2.44931341799195       -1.74019896518922       -0.04150262665778
N           -1.13646203688646       -1.77064061215018       -0.03539169885358
C           -0.42282451962614       -0.67054005683616       -0.01737888107504
C           -0.75565970070529        0.81144711042187       -0.00157595338494
C           -1.95728508056459        1.43120217091718        0.02758910562864
C           -3.19810717298148        0.73613925576515        0.01974381782224
N           -4.31818306426471        1.51164677610911        0.01865897979368
H           -4.24419563171084        2.50316874479054        0.15335404592990
H           -5.22549779476083        1.08403196245313        0.08955896781792
H           -2.01869478636350        2.51406536017695        0.06213069156669
C            0.64497376930760        1.08792781269300        0.00843198767375
C            0.93684054828068       -0.36254260027191        0.00093711225519
C            2.14047128672357       -1.07096530017733       -0.00185876915440
N            2.08939240367908       -2.41079224302837       -0.02571603721065
H            2.93184273973229       -2.96155604013506       -0.02813881572179
H            1.18541031051500       -2.85478087505343       -0.03652593480273
C            3.38441321283236       -0.38526592985041        0.02450728211925
C            4.53728116036731       -1.18821678664631        0.03363049354652
N            5.46122782692674       -1.87466664538651        0.03888288603059
C            3.60999257436118        1.01082796292001        0.05535403840735
N            2.86740869590795        2.07693309842279        0.03099011791986
C            1.51128079453735        2.15771573974213       -0.00842953280363
N            1.07038326904315        3.43818806606228       -0.03359395990116
H            1.76223551674073        4.16150139643008       -0.12321020315876
H            0.10241193937221        3.64575126993959       -0.18996530047575
H            4.66877440506149        1.26746671430035        0.09933077290611
H           -2.90182559445254       -2.72684010521481       -0.06423829257926
