26
 energy: -47.172312284260 gnorm: 0.000566847214 xtb: 6.6.1 (8d0f1dd)
N           -0.88309505190886       -3.75612396695799       -0.00465244529362
C           -1.00579052469271       -2.61137436676295       -0.00036646232575
C           -1.19065628323761       -1.22214290869361       -0.00006287889540
C           -0.06578277200197       -0.36144095656676        0.00027003086732
C           -0.05096764443362        1.10662653805585        0.00192563098434
N           -0.92308855005954        2.03345398000079        0.00342495866421
C           -2.27528916881084        1.70674307087621        0.00369282900000
N           -3.03087732872876        2.81912115800346        0.00539721640437
H           -4.03191110827002        2.74442425066315        0.00570284864203
H           -2.57347748157770        3.71298559388925        0.00610641243388
N           -2.91044186049888        0.57853903079190        0.00273078375245
C           -2.49399752694532       -0.71036572025830        0.00108206280078
N           -3.53976979309244       -1.57118592528059        0.00055100027923
H           -4.46933467820041       -1.19367318484595        0.00205166303416
H           -3.38845797230807       -2.56432702862563        0.00002477782164
C            1.42925209623256        1.07173472264612        0.00121939696969
C            1.32532392130276       -0.39968667613240       -0.00041949778995
C            2.37877063069727       -1.35782925167538       -0.00189332667599
N            3.63999944279781       -1.13065908301084       -0.00223507844303
C            4.26559694348387        0.10270951622096       -0.00126714534026
C            3.83727876974037        1.38303756501568        0.00045245914400
C            2.47703883350756        1.89602352366309        0.00174375861200
H            2.34287181932550        2.96759769710450        0.00308165948264
H            4.60689302513728        2.14428178741415        0.00091085778938
H            5.34209949374008       -0.04573867103776       -0.00206618371331
H            2.09559965620174       -2.40814053789695       -0.00284569550477
