31
 energy: -53.798441566632 gnorm: 0.000763315831 xtb: 6.6.1 (8d0f1dd)
N            4.88136536254855        1.61340735585665        0.02041736291699
C            3.88039870757855        1.03695015164611        0.00145981310055
C            2.65729055040497        0.35918196937551       -0.01200373260439
C            1.49862747593719        1.19367078125774       -0.01577992328975
N            1.67537178968730        2.54048946503313       -0.04935652369686
H            2.59646340869833        2.92778605694727        0.06453404842459
H            0.87835182298813        3.13668210181770        0.07391593759592
C            0.22264159959332        0.66499720725280       -0.01560730900733
C           -0.21402932507252       -0.74479567917475       -0.01156069095921
C           -1.56058129075151       -0.35119733828408        0.00486189596898
N           -2.70560544493725       -0.97328674862125        0.01601974094637
C           -3.86922165197049       -0.31957547558343        0.03435773895453
N           -4.95635273716371       -1.15939391232077        0.12790070329422
H           -4.76965705603560       -2.13120249469193       -0.05341149624101
H           -5.85711964175780       -0.81348398176859       -0.15329116296322
C           -4.13703672368004        1.06798570619662        0.01832193819106
C           -3.30367023258664        2.16808338691526       -0.00466788410195
C           -1.89985156950255        2.22423438001815       -0.01500969660848
C           -1.12600503077975        1.10349089093901       -0.00393891690583
H           -1.44616551343828        3.20897357973497       -0.03688397903667
H           -3.80744677947683        3.12744976673983       -0.01753495403048
H           -5.19770119087825        1.29703246331666        0.02764809810287
C            0.51158842314040       -1.93192032768309       -0.00681837840531
N           -0.16871097912068       -3.09784179903404       -0.01544037210784
H           -1.17063208074671       -3.06705921806471        0.05198883645583
H            0.33415643785703       -3.96324544026654        0.06099504477004
N            1.84059668923515       -2.04084352432220       -0.00799526761172
C            2.74236512598746       -1.06821467509443       -0.01361435163646
N            4.00082724964202       -1.57351755306348       -0.00894872089947
H            4.10052020638867       -2.57231280530404       -0.02607911646312
H            4.80908136171154       -0.97714870747017       -0.03503687545286
