27
 energy: -47.700521992388 gnorm: 0.000730332340 xtb: 6.6.1 (8d0f1dd)
N            4.82669578992072        1.29640479466785       -0.00081160444445
C            3.88334624320486        0.63798135366330       -0.00171720036187
C            2.70891544446371       -0.13962759769963       -0.00053019275878
C            2.93870602419362       -1.53109180585369       -0.00048003046432
N            2.18590834446972       -2.60056228053750        0.00004044673635
C            0.84633343966002       -2.61646131250964        0.00065281129760
C            0.01315029405572       -1.54248052224884        0.00079557729673
C            0.25576625544313       -0.07830892056548        0.00044592117440
C            1.48212464909026        0.59770107007411       -0.00012344302151
N            1.54880966109376        1.93518467320197       -0.00035748905178
H            2.44949481649384        2.38802960270075       -0.00079923189504
H            0.71993357151233        2.50883308251468       -0.00017360118444
C           -1.12658525779842        0.16899691330053        0.00097473452232
C           -1.40358353294544       -1.29995451611186        0.00131926360349
C           -2.55207473335808       -2.01482081823818        0.00188821936253
C           -3.84555093278523       -1.44437039272634        0.00234151924729
C           -4.20302221203904       -0.11550925009435        0.00226751797965
C           -3.43543743015966        1.05933070086150        0.00170059384042
C           -2.05099362488124        1.21523652229729        0.00109833988432
C           -1.56528426747220        2.54117050743921        0.00009395345439
N           -1.13930607186284        3.60845766508764        0.00054507277605
H           -4.00244835709841        1.98246158892846        0.00167684451027
H           -5.27137110778665        0.06822145868932        0.00269305842608
H           -4.66361319221805       -2.15286178797711        0.00280909969433
H           -2.48742212145480       -3.09538979598998        0.00203659708177
H            0.42658803832303       -3.61746991245688        0.00098808612855
H            3.99757388243534       -1.78779277141707       -0.00102232043434
