25
 energy: -42.651327818201 gnorm: 0.000826136313 xtb: 6.6.1 (8d0f1dd)
N           -4.26717091148127       -1.25324593873493       -0.00736454344679
C           -3.11594106892324       -0.53817878894411        0.00043848213480
N           -3.28482470649129        0.75316156712944        0.00786282778730
C           -2.39890569500284        1.76823163453523        0.01997698481145
N           -1.10238755630917        1.84063271653149        0.01497237231886
C           -0.35556371686411        0.73190102613771        0.01015594192582
C           -0.70011250012827       -0.72984733861644        0.01474028540069
C            0.73438718835341       -1.01648952760201        0.01012719990001
C            0.99230951745240        0.43391015804955        0.00290213707089
C            2.23077307463078        1.12981546181529       -0.01023227269162
N            2.16014631256782        2.47412217708286       -0.01948905036273
H            2.98862895084128        3.04202254061038       -0.02618546505395
H            1.25069416250299        2.90539735483214       -0.01283156066632
C            3.43680522433068        0.44806058796949       -0.01356655954218
C            3.66610490059170       -0.94966197277930       -0.00350891540777
N            2.93161741991045       -2.02131719731471        0.00815000321812
C            1.57181129106101       -2.07081906658610        0.01349304778428
H            1.18401948903936       -3.08447612923191        0.02226860498621
H            4.72665891984025       -1.20337640274925       -0.00790570286286
H            4.33220016332987        1.05787369464910       -0.02408061809636
C           -1.89099566812195       -1.33340553436416        0.00873130031713
H           -1.98856465246059       -2.41183879912665        0.00567682140947
H           -2.89845016944119        2.73428489874611        0.02993286360938
H           -4.26872568870953       -2.25493367756404       -0.06516246507561
H           -5.13553813231860       -0.74862861237521       -0.04185006716826
