28
 energy: -50.624170637730 gnorm: 0.000756749852 xtb: 6.6.1 (8d0f1dd)
N            2.43079032017419        3.34741117544683       -0.00514205665047
C            2.23075928494444        2.21559401175425       -0.00322391224571
C            2.03846197202150        0.82079705124895       -0.00068286842113
C            0.80040936986000        0.27657991370222       -0.00853730674435
C            0.38369053461922       -1.17490071870191        0.00186161356556
N            1.06707808932418       -2.31580220560832        0.01308900459178
C            2.36975433187410       -2.31405612204006        0.01919975506138
N            3.30116612412823       -1.34795588314654        0.01973625962920
C            3.22471064389189       -0.04986729995537        0.01238556792460
N            4.41758320710608        0.59185545121051        0.01835349483153
H            4.47661789313152        1.59492985476120        0.01263861934927
H            5.25238213125539        0.03321336606299        0.02704708813705
H            2.81599415058031       -3.30534344535299        0.02699923917717
C           -0.94535441804042       -0.79699898450125       -0.00021639659120
C           -0.59662915958902        0.63699465952060       -0.01408054282540
C           -1.37941223366061        1.74421046064709       -0.03566539533782
N           -2.71914253256746        1.77522092556023       -0.02044989204837
C           -3.54774860664051        0.74683386372433        0.00171307996392
N           -4.84160729483841        1.15800719486957        0.02607814288887
H           -5.60840955100484        0.51531206178718        0.08909387856252
H           -5.01027792532945        2.14781990505720        0.05654185110817
C           -3.38290410506514       -0.67580357754892       -0.00882513791403
C           -2.22245729057332       -1.41828828036370       -0.00534221758545
N           -2.22714107634913       -2.76780006320957       -0.00001460669076
H           -3.08270785108651       -3.29167973189225       -0.03239505946260
H           -1.34246041179325       -3.24638045075910       -0.01275578490426
H           -4.31097539070799       -1.23568919994581       -0.00979332471185
H           -0.92482027536783        2.72970373607359       -0.06029381855919
