27
 energy: -52.484196357155 gnorm: 0.000164304380 xtb: 6.6.1 (8d0f1dd)
N           -5.33984206079235       -0.21973484362466       -0.00025319440037
C           -4.25237527565540        0.15212780980588        0.00013567607740
C           -2.90828104469841        0.58098110446714       -0.00019777589887
C           -2.74803669499954        1.98210468434944       -0.00026265473349
N           -1.73068117635182        2.80621983240904       -0.00089858613649
C           -0.43941945833286        2.46664291821586       -0.00107970313392
C            0.06929727036927        1.20094345474195       -0.00012075329282
C           -0.56341008999564       -0.14136416028605        0.00037731393874
C           -1.93157348618553       -0.46290693802014        0.00017995689718
N           -2.34961766315920       -1.73100131394623        0.00053684344114
H           -1.70359921518151       -2.50666292154935        0.00111154061217
H           -3.33886812948613       -1.92977155921721        0.00044619200146
C            0.69349729737622       -0.76137580929122        0.00066862592769
C            1.36140754778391        0.58336293785082        0.00013210973944
C            2.67944799246124        0.92487508652657       -0.00009593280502
C            3.04863195223155        2.29156911598057       -0.00068457896877
N            3.36144636479994        3.39411802804966       -0.00102641435533
C            3.74076109960038       -0.04597680919687        0.00004120092204
N            3.70794567310572       -1.34167194430593        0.00081378476487
C            2.69904855957326       -2.20309538576414        0.00157255845555
C            1.30993007836639       -2.01163753303137        0.00139128891498
C            0.49643627533726       -3.16454285297824        0.00197740606298
N           -0.20380102882777       -4.07535718632794        0.00258854532229
H            3.03874482775845       -3.23452793814285        0.00231781887028
H            4.74687896916831        0.36351760091290       -0.00057265875983
H            0.24025724428586        3.31279835320503       -0.00200248727750
H           -3.69587893805160        2.51909826736722        0.00018563851413
