30
 energy: -54.872990518264 gnorm: 0.000654426513 xtb: 6.6.1 (8d0f1dd)
N            0.98561917988328        3.93895125953278        0.00405398539231
C            1.44213386836234        2.88235842474273        0.01012300698761
C            1.95482504982074        1.57274591121264        0.01328476354869
C            1.07193794853211        0.48975540391300        0.01399249050166
C            1.43047989305186       -0.97762763345896        0.01835891849566
N            2.51517313580332       -1.65980428635720        0.01516287520070
C            3.74499427015474       -1.08985054115594        0.01426678856938
N            4.73340076620798       -2.02479292448875        0.05046876479352
H            5.69003963437139       -1.77088924600254       -0.11677792307632
H            4.45564936839012       -2.98422812334370       -0.06079457002565
C            4.10944809413259        0.26162898161640        0.01399533452226
C            3.34545418054412        1.42224859771752        0.01475150980204
H            3.90888162378930        2.34796512333757        0.01407575386134
H            5.18125885733404        0.42526738571482        0.01488442614426
C            0.03437606954589       -1.29648857790960        0.01457707177450
C           -0.28316258759924        0.15274209536652        0.00909275769235
C           -1.54883956084068        0.76895606810182       -0.00314519965205
N           -1.64388213979041        2.10968883078415       -0.01278180000015
H           -0.82380771337777        2.69442687524031       -0.00809117210129
H           -2.55078398469037        2.54716418039758       -0.02088601287557
C           -2.73944884001820        0.00498801702298       -0.00668055943626
C           -3.92794755732054        0.74811700035194       -0.02149216034363
N           -4.90319475466411        1.36480351643093       -0.03319365178179
C           -2.91899740560882       -1.42950662570768        0.00490035412153
N           -2.08163608271348       -2.45135200351180        0.01242156971948
C           -0.74927858937744       -2.40668006598479        0.01503897702177
H           -0.28202464980230       -3.38558418587155        0.01902487115616
N           -4.20525884117176       -1.84411468467790        0.00717615654473
H           -4.97505612751678       -1.19744780189646        0.00153730776083
H           -4.36716204043190       -2.83598929911686        0.01464879598198
