26
 energy: -42.365557414681 gnorm: 0.000591705247 xtb: 6.6.1 (8d0f1dd)
N           -4.00763866252684       -1.63408482129603        0.04569626839645
C           -2.98130138428740       -0.70514971315779        0.03621034110387
C           -1.67747184531552       -1.18275947089933        0.05921967536159
C           -0.56383978209806       -0.36395395848596       -0.01631864872181
C           -0.50048508909468        1.14627834348520       -0.05425114725624
N           -1.36067138272050        2.09113985175890       -0.09383967949613
C           -2.69034863118775        1.83138565772348       -0.13077732519388
C           -3.39004206240823        0.65650093311759       -0.06900570571754
H           -4.46845057226867        0.77677074356904       -0.09868891940228
H           -3.27299357130673        2.74280388432406       -0.20848777141830
C            0.93894105181702        1.06277468951298       -0.00400438882395
C            0.82893108453812       -0.41587559830413        0.02747491120198
C            1.87538843165622       -1.36414403011312       -0.03751686899753
N            1.55703085241526       -2.67348024538535       -0.17794793188496
H            0.61978093264219       -2.93748758636444       -0.42223737073780
H            2.31235604248022       -3.31779138145022       -0.33860960652304
N            3.16891577425508       -1.11767331664861        0.05365271666680
C            3.76701992119415        0.07758768956616        0.16219530008752
C            3.34635393513804        1.38335297902617        0.09007880293872
C            2.01748012326623        1.87697987436980       -0.00587825563734
H            1.87354911573058        2.94811743309114       -0.05068277262385
H            4.12581854353378        2.13183972200710        0.14292579999874
H            4.83925545457263       -0.05706309262675        0.29674130343525
H           -1.54414799203924       -2.25553531369673        0.15837579868919
H           -3.78132680510894       -2.55953264340952        0.37034685351212
H           -4.92198841177669       -1.30587439001338        0.30891302764212
