33
 energy: -62.053951175685 gnorm: 0.000694875443 xtb: 6.6.1 (8d0f1dd)
N           -3.96360699602711       -3.28745086780460        0.05133284830996
C           -3.25654550136771       -2.37496281359006        0.03461263119642
C           -2.36385089437496       -1.29419528231291        0.01637558176722
C           -0.98805154076082       -1.67246460710722        0.01245008848240
C            0.03620776611619       -0.74300029637353        0.00301264688111
C            0.03613058226637        0.74318833939834        0.00063027301912
C           -0.98822044844918        1.67255115256390       -0.00847127548248
N           -0.65739146959674        2.98104545993451       -0.01319797912840
H            0.31898168981749        3.22010773116726       -0.02019946381880
H           -1.36230082219553        3.69751228992064       -0.03078481535649
C           -2.36400060825859        1.29414286241101       -0.01189832017492
C           -3.25680011656950        2.37475304325881       -0.03077965843226
N           -3.96392432129927        3.28689461330534       -0.04733178331705
C           -2.95412943951651       -0.00006616714855        0.00234913634130
N           -4.30970634343413       -0.00011521786860        0.00241202569726
H           -4.81730617985528        0.86806918945223       -0.00664685490788
H           -4.81725262224611       -0.86832645203315        0.01144070096925
C            1.43662675508301        0.76518790323012        0.00228127585392
N            2.39304465110290        1.65182046283766        0.01176978645645
C            3.66885312484044        1.21344379258668        0.01525032797805
N            4.58359137255953        2.21354093732257        0.00487341988425
H            5.55313181002220        1.98009172737272        0.11334237991480
H            4.26854094511971        3.15819031533328        0.12633144968642
N            4.20102864749300        0.00030449430474        0.00100548679598
C            3.66897536857921       -1.21289181900922       -0.01304111113924
N            4.58383091191023       -2.21288815029306       -0.00302290185811
H            4.26883973082965       -3.15757398949977       -0.12436846389145
H            5.55329914302300       -1.97932602174145       -0.11186792340923
N            2.39321322265335       -1.65140122771349       -0.00907443890988
C            1.43670397923952       -0.76486493805941        0.00080570103228
N           -0.65708003082317       -2.98092487435244        0.01695199869242
H            0.31931989809017       -3.21988541499908        0.02362629094423
H           -1.36188412097097       -3.69748127339407        0.03472870542403
