31
 energy: -49.784161210415 gnorm: 0.000924699396 xtb: 6.6.1 (8d0f1dd)
N           -2.51240384795980       -3.34503440606325        0.03888903315522
C           -2.43133028883600       -2.19654223685635        0.03168936451188
C           -2.34297701751712       -0.79068726659864        0.02078429821200
C           -1.10550356041568       -0.18013131194006        0.01396086114877
C           -0.78707647838437        1.30242273646632       -0.01067365217697
C            0.58863181728760        0.97931368914452       -0.01027577369970
C            0.27736374163271       -0.46004898972036        0.00776608610097
C            1.13560182554113       -1.56745068372706        0.00754957893738
N            0.62393631242702       -2.81918895759299        0.06463491947169
H            1.23461543515209       -3.61337745705062       -0.00315406407202
H           -0.36816911967502       -2.98079037249387        0.03623592490439
C            2.52961968134517       -1.44543569257917       -0.02878288764901
C            3.35982964008503       -0.32104712024320       -0.05011820552454
N            4.70247639538150       -0.59559961266596       -0.14341314730906
H            5.01911711706050       -1.53339496923858        0.02804760438410
H            5.36121794816869        0.14202456087683        0.03261458637603
C            3.04229838754044        1.04467684118404       -0.01875228921126
C            1.79929828953169        1.67301506071321       -0.00413668936194
N            1.76687477041130        3.04023265488091       -0.03012671832705
H            2.61198843373504        3.54495972640030        0.17511052653604
H            0.89972198178200        3.49122080203292        0.19933924154569
H            3.89732463570701        1.71212970214892       -0.02174823565648
H            3.06011633220190       -2.39217497530626       -0.04354645985815
C           -1.60827551398654        2.39130361989838       -0.04966433723617
C           -3.00649840144490        2.34676549503058       -0.04552094460645
C           -3.84781799662060        1.24184757045361       -0.01358227269685
C           -3.58380330515376       -0.11802161082577        0.01425154183116
H           -4.45104816780657       -0.76814751692082        0.02854106498789
H           -4.90522249175177        1.48485713627232       -0.01587002906077
H           -3.50417951124202        3.30846130505118       -0.07349763072722
H           -1.16326561389665        3.38036632676850       -0.09325067482965
