28
 energy: -52.216006530343 gnorm: 0.000332663797 xtb: 6.6.1 (8d0f1dd)
N            6.09869355194850        0.09544479931762       -0.00037112101962
C            4.96020591739045       -0.03498588784522       -0.00032214048398
C            3.54791135358113       -0.19164766384000       -0.00066256388311
C            3.12135906869611       -1.52131661333409       -0.00130945526165
N            1.88647050144160       -2.03712035496254       -0.00179079170034
C            0.82928461157551       -1.31109737274874       -0.00157907220425
C           -0.57605185011645       -1.56284258023440       -0.00192958153220
C           -0.83943070754840       -0.10481549597781       -0.00117524488739
C           -2.06771516388016        0.58298119819344       -0.00092758140993
N           -2.09934123527899        1.92072208283308       -0.00007813716844
H           -1.25574645729672        2.47366152008203        0.00032815511776
H           -2.98637760747223        2.40058069565522        0.00008832273127
C           -3.30993814131869       -0.11937663437193       -0.00151271046610
C           -4.46178070681535        0.69627826593102       -0.00112413316876
N           -5.39232594646547        1.37171844586303       -0.00083007326642
C           -3.58332315911981       -1.49786313188577       -0.00241681153003
C           -2.77594324845201       -2.61803326214506       -0.00294083320423
C           -1.37737636226311       -2.66689501094870       -0.00269157473045
H           -0.89661608612366       -3.63558703015364       -0.00324965080962
H           -3.28994624594545       -3.56907058818287       -0.00355706738188
H           -4.64842029935973       -1.70855728032909       -0.00262202178473
C            0.53070947057639        0.18539748529133       -0.00081595298461
C            1.45584332213784        1.22361336028151       -0.00024014728423
C            0.99690338043770        2.55948995233733        0.00034483333488
N            0.57766190293013        3.62930737802814        0.00080294511362
C            2.83870689224309        1.02632406063481       -0.00021001122888
H            3.44975623632890        1.92145630804403        0.00025705888924
H            3.89642710466894       -2.27945135233277       -0.00156283519588
