25
 energy: -42.660608904911 gnorm: 0.000763328910 xtb: 6.6.1 (8d0f1dd)
N            4.39636851534110        0.41295364558933        0.32866949161298
C            3.07899533225790        0.34813533206777        0.03480149692038
N            2.64831939082291       -0.91709637584180       -0.07227471354658
C            1.39533431703740       -1.34510326437552       -0.08783280352220
N            1.24368163183855       -2.68153897359758       -0.20980687532184
H            0.32875713767995       -3.07895641427220       -0.31615428457550
H            2.05838302643715       -3.24090712734120       -0.39093680939745
C            0.26394376174555       -0.52183729991789        0.04445849300374
C            0.22035124122789        0.95261200527144       -0.03894384188120
C            1.24499181797922        1.83702993689515       -0.22400117997291
N            2.54120499721873        1.55034982741539       -0.16149500924123
H            1.03749401622251        2.88571603032171       -0.41467081014537
C           -1.21095088422853        0.90765645297966       -0.01231868628442
C           -1.13591795558476       -0.59141540013356        0.06178274501398
C           -2.17116925783639       -1.50066513327863        0.13920388691869
C           -3.51247147335458       -1.13767151696636        0.13963960817955
N           -4.11716327060877        0.04736998751050        0.08998278599268
C           -3.62259937159508        1.25197587802124        0.02982044247336
C           -2.28614459137080        1.73071546660300       -0.01500323314032
H           -2.14299320366866        2.80321588132803       -0.05869340539750
H           -4.39522061518409        2.01784590868642        0.00929820704046
H           -4.23260348924096       -1.95076437998706        0.19141582470163
H           -1.94506390120205       -2.55937611874909        0.20787616265168
H            4.84729293976717        1.30991196428076        0.32742358402277
H            4.92698472639874       -0.43636131600965        0.39408573879455
