28
 energy: -49.833337095099 gnorm: 0.000882073806 xtb: 6.6.1 (8d0f1dd)
N           -3.90007314318783       -2.16598528655086       -0.29182335232035
C           -2.94742197735700       -1.18588027687345       -0.14084283619703
N           -3.48796436212971        0.03184544656457       -0.06957086727650
C           -2.95023842990607        1.22829424332615        0.00462737915446
N           -3.84830821850853        2.24465302280439        0.11737590270041
H           -4.81627651108782        2.04534488995732       -0.05861082303147
H           -3.50155868149665        3.18049051840348        0.00609248444884
N           -1.66848218272203        1.67302751746751        0.02024084919650
C           -0.68194094432475        0.84452961015663        0.00941274061180
C           -0.57880774962954       -0.66650209839724       -0.04832489537649
C           -1.60042140254573       -1.58177231486293       -0.13271907519856
H           -1.38823687397356       -2.64202030023867       -0.21833641090151
C            0.81642011742693       -0.55854199099546       -0.04836883821482
C            0.73805390440039        0.93156941964536        0.01775824951219
C            1.73702664383745        1.83736570593147        0.21177828402562
N            3.04425497176835        1.57789161393671        0.14759224800071
C            3.59902168275896        0.38510865156841       -0.04212680963612
N            4.90707137213631        0.47025735859054       -0.37564567619313
H            5.45031268814979       -0.37025845336266       -0.44811122411052
H            5.33564559547197        1.37662398672134       -0.42252707806113
N            3.20750780693075       -0.88997757721378        0.11460776727082
C            1.96089379850075       -1.34421659639728        0.12353283038973
N            1.84234416097034       -2.68926178532373        0.26596168025823
H            0.93635765111936       -3.08512743275296        0.43938194643384
H            2.66323709042925       -3.20144946124559        0.53794527328575
H            1.50202897374332        2.87999708300115        0.39962199047123
H           -4.84794213731568       -1.87746659335513       -0.11717857422440
H           -3.66041283335897       -3.11380863850516       -0.05915495531827
