27
 energy: -46.104398429102 gnorm: 0.000971949848 xtb: 6.6.1 (8d0f1dd)
N            4.78644965036280        0.13989046158792       -0.00219184734535
C            3.43979199661154       -0.04330385109960        0.00090567130975
N            2.80420485812104        1.12980184682050        0.00034933432525
C            1.48474578750082        1.32946666199486        0.00422171292696
N            1.09356184154387        2.61880074860454        0.00414903409481
H            1.78309645776011        3.34669241013373        0.05966646295514
H            0.11059723489471        2.82428333223504        0.04616435037031
C            0.49724659467817        0.34416276863340       -0.00505567629502
C            0.60200153391572       -1.13669609204456        0.01490600772822
C            1.73062141629300       -1.91652915098275        0.03235738530497
C            3.01766458400868       -1.39557949974259        0.02542579825101
H            3.82879289418786       -2.11294563521850        0.03624369543303
H            1.62478977316863       -2.99422371286870        0.05232451740807
C           -0.80824103280395       -1.25302703903449        0.02196935743089
C           -0.89779167043570        0.26890387805558        0.00788733737512
N           -1.89312817408144        1.11369857199428        0.00720671672274
C           -3.15931149362003        0.67896492861012        0.02695701487011
N           -4.08642128195407        1.68168237315338        0.11879772484498
H           -5.04123623756321        1.43096335555491       -0.06767651452458
H           -3.78228051472355        2.61726785066536       -0.08347160241766
N           -3.71165996284318       -0.53505331077768       -0.00514147723721
C           -3.17367126908920       -1.73078725798163       -0.01711855363938
C           -1.82909182676332       -2.15408824737765        0.00487382264523
H           -1.63139172020474       -3.21930181971692       -0.00420099238456
H           -3.92569245686588       -2.51689453097736       -0.05463444787926
H            5.12947236763126        1.08134912440326       -0.07101158616421
H            5.42293099827012       -0.63173900382447       -0.08107832240934
