32
 energy: -54.307972630669 gnorm: 0.000497858028 xtb: 6.6.1 (8d0f1dd)
N            5.36207017948911        1.18840860289226       -0.10112043153160
C            4.39939737006519        0.55578143593160       -0.06603268981666
C            3.22361586945821       -0.21289901873185       -0.02339426632543
C            3.46816013646630       -1.62327940439686        0.03286942143459
C            2.64196750715728       -2.69884872396454        0.06905236930423
C            1.21348831826659       -2.70219704607845        0.06048542639508
C            0.46769329361952       -1.58742040662729        0.02975617500770
C           -0.95781077412046       -1.26690301394485        0.02075952521556
C           -0.60699442281430        0.17064220012895        0.00424990895424
C           -1.49060387731540        1.27548767250450        0.01874219487914
C           -0.95390612152994        2.56785921849809        0.06582058709328
N           -0.52348219733258        3.63768813496872        0.11972231558082
C           -2.88980505331417        1.17755840925036        0.00647346361203
N           -3.59796064109717        2.35051169615908       -0.04175134666729
H           -3.11070086108016        3.21739055758017        0.11170839953641
H           -4.58170821242691        2.33840474198647        0.15985967494291
C           -3.69414837167106        0.00639511138074       -0.02026128146033
C           -3.41069606933736       -1.33734413287324       -0.01704232757375
N           -4.45938080731506       -2.21704469329629        0.00870287399293
H           -4.28260561816654       -3.18464770725729       -0.19593074686953
H           -5.38649824676845       -1.87816569826818       -0.18103176497093
C           -2.10820590331558       -1.94884014150986        0.01382231586815
H           -2.08203270017670       -3.03128759916382        0.02687331409467
H           -4.75633407775766        0.23290749699244       -0.04522183011132
C            0.75537214368966       -0.13759208110038        0.00286147978127
C            2.01862338680416        0.50980606940431       -0.03735792635750
N            2.07452118092990        1.85385537666080       -0.10722219174089
H            1.24456967740819        2.42145080789857       -0.07508191239481
H            2.97193761594614        2.31049393247070       -0.11792766586997
H            0.72070931541443       -3.66561021695332        0.08332731363711
H            3.11147644587866       -3.67259580059398        0.10761211836405
H            4.52987418624621       -1.84963781204749        0.04489416189589
