28
 energy: -52.221476512086 gnorm: 0.000076108641 xtb: 6.6.1 (8d0f1dd)
N           -4.99278702020805       -1.58050067737968        0.00062658915098
C           -4.00049164546292       -0.99811010869462        0.00071272876662
C           -2.80193478802410       -0.26143217817686        0.00075771726654
C           -1.62398348243776       -0.99980834222194        0.00040547395433
C           -0.37235227076882       -0.42747059700117        0.00033434497076
C            0.01253268889666        1.00876227950739        0.00047846069265
C           -0.76031385058316        2.13316668102035        0.00069013623592
N           -2.08921543102431        2.18464092110617        0.00107155058912
C           -2.95824042615894        1.18783339367628        0.00121331949345
N           -4.22908406023453        1.62673825464923        0.00185044457584
H           -4.37583189402202        2.62244295109798        0.00215069002420
H           -5.01192654965255        0.99366516397847        0.00197657455260
H           -0.28910887626420        3.11131973442842        0.00056629931008
C            1.38963979625910        0.63182745459182        0.00013470160891
C            0.98542309384210       -0.80340687953606       -0.00000387554631
C            1.76607942651057       -1.94993765576382       -0.00034622952850
C            1.09666071965265       -3.19937677125615       -0.00042959461056
N            0.54634562008931       -4.20485157873582       -0.00052574925642
C            3.16322163274194       -1.95798148369695       -0.00063079953912
C            4.05039748193877       -0.87547258843936       -0.00059948097901
C            3.85015419809199        0.48963493897133       -0.00030994842039
C            2.63028361616249        1.21260435228265        0.00002390787006
C            2.70939472582653        2.62734831842666        0.00024200571186
N            2.77207726716617        3.77192985841738        0.00040413582161
H            4.74207351344276        1.10366236450375       -0.00034147048606
H            5.09355077184097       -1.17020816797709       -0.00085538300685
H            3.62208730512048       -2.93872347819493       -0.00090134632396
H           -1.70823343654117       -2.08019853218341        0.00018999780159
