28
 energy: -50.622783952181 gnorm: 0.000710084295 xtb: 6.6.1 (8d0f1dd)
N           -4.83477187183803       -2.10789883836261        0.01103882776428
C           -3.89143140831919       -1.44531399205051        0.00844690976219
C           -2.74565629800891       -0.63418967093994        0.00556622774876
C           -1.52877531209469       -1.32709701963382        0.00852538605370
C           -0.29769554713800       -0.73373554640517        0.00421711697898
C            0.08977135448301        0.70019098130611       -0.00366661995940
C           -0.67935255289642        1.86543510685308       -0.00390682671271
N           -0.01720531734954        3.03948999904795       -0.01451237428223
H            0.98814552739743        3.01478816570099        0.01098990805766
H           -0.50005789435679        3.91888780671986        0.02493802869028
C           -2.08228991829172        1.85415832528012       -0.00076402456062
C           -2.98254525539292        0.78889734195329        0.00136755166379
N           -4.29302417773060        1.13409389378468        0.00246867525560
H           -4.56858399358891        2.09950119107906       -0.00353826958324
H           -5.00534510301437        0.42338949455242        0.00168375167867
H           -2.54582968331953        2.83515376525850       -0.00129422064283
C            1.44340837569796        0.37584958691227        0.00560895515527
N            2.59531615878825        1.00117836770274        0.00893371510861
C            3.71756938718707        0.26821477076286        0.02440943297388
N            4.86404833085587        0.99274945539782        0.09095942122312
H            4.82008998151419        1.98702751523141       -0.03708781212281
H            5.73369714889214        0.50490556299169       -0.02442620539040
N            3.93458037685820       -1.05400510617696        0.00222044700322
C            3.11984495884989       -2.07422632656156       -0.00939217174476
N            1.78171435876611       -2.19313506789463        0.00026366089780
C            1.06520126453345       -1.11354039420706        0.01029914106946
H            3.63003286763742       -3.03431350889135       -0.03406383646582
H           -1.58026502062134       -2.40867587661126        0.01537236987955
