33
 energy: -57.236614002678 gnorm: 0.000588151881 xtb: 6.6.1 (8d0f1dd)
N            4.88263257150024        2.02501152723498        0.14550772405870
C            3.95696746555426        1.33579435329404        0.07728283907822
C            2.82613985334238        0.51804219700945        0.01675997222691
C            1.56890729684002        1.20978401541154        0.02250459105700
N            1.59484089331706        2.57571612581223        0.00160603165717
H            0.74405834404028        3.06342960615562        0.21645770236170
H            2.46547543110409        3.04249042725900        0.19544369069983
C            0.37377512959059        0.53559997504136       -0.00114127518029
C            0.10754628122689       -0.92102551555082       -0.00412266130650
C            0.97343312498074       -2.01249144690189       -0.02053508379750
N            0.43377177494791       -3.25025112983230        0.00726867970080
H            1.03189926311000       -4.05204890578240       -0.07242576413647
H           -0.56645364026136       -3.33340363198126       -0.04072405568295
N            2.30296619386514       -1.96212793700792       -0.05350777462262
C            3.08126608363997       -0.88253817015830       -0.04388714002757
N            4.39061275874927       -1.23586139522294       -0.09650870166569
H            4.60666163082958       -2.21573025180245       -0.11313954123070
H            5.12127786739598       -0.54670483506063       -0.07358526648463
C           -1.27202625651938       -0.69549888477360        0.00560981050637
N           -2.33933470456838       -1.45093783051913        0.02609910938605
C           -3.56644803078804       -0.93287308890477        0.02380693858946
N           -4.55361969566396       -1.89712149525862       -0.01374733564224
H           -5.46708000444325       -1.65396007939851        0.33016535768162
H           -4.23646312908758       -2.82792568314263        0.20236432450384
C           -4.00004492383380        0.40669764827164       -0.01349983837158
C           -3.32082663473110        1.61808066425576       -0.04169051244070
N           -4.09086592887398        2.76584744998362       -0.01132020288733
H           -5.06151672512330        2.67458734139132       -0.26226558770328
H           -3.65325403201519        3.61828601819293       -0.31936522691367
C           -1.91575979863339        1.82063362970009       -0.03253733331371
C           -1.02590119576734        0.79921726170704       -0.00120546139981
H           -1.57526224927499        2.85051597139635       -0.05929798252159
H           -5.08184372124926        0.50453922858187       -0.02549279927942
