29
 energy: -51.145417623880 gnorm: 0.000708445579 xtb: 6.6.1 (8d0f1dd)
N            4.14240390482625        2.98401222036617       -0.03407778580026
C            3.32886163963453        2.16877784374064       -0.02225250558657
C            2.32939607008047        1.18025339436453       -0.00849870185129
C            1.00194467797471        1.69387397116121       -0.00346933617746
C           -0.11581951408050        0.93755686811064        0.00523375229417
C           -0.30085777953251       -0.53888840368207        0.01014183933883
C            0.62192600644834       -1.55168682451878        0.01387437241305
C            2.00649796884761       -1.37757503972932        0.00970350328457
C            2.75168917373948       -2.57020048544262        0.01579643770781
N            3.35799152197994       -3.54950677171457        0.02072729782647
C            2.77918318265490       -0.15833651333600       -0.00160435296643
N            4.11745272435193       -0.33779564923815       -0.00646330578369
H            4.73395011892064        0.45836395978557       -0.01422611708941
H            4.50691714231204       -1.26616705289099       -0.00138218976161
H            0.26062738794964       -2.57319759181464        0.02104185251336
C           -1.70174604646047       -0.37743165556909        0.01267161253212
N           -2.73271465664387       -1.17886447656729        0.00588863215691
C           -3.98499675919912       -0.73905495698942        0.00600740259948
N           -4.90830324097578       -1.73909926028718        0.04543583507441
H           -4.56396309585250       -2.67798044304760       -0.05611103428886
H           -5.87768928105658       -1.55676881899009       -0.13976760733886
C           -4.49368230157449        0.59753443375476        0.00629821578783
C           -3.86250227205924        1.81330315731868        0.00578635803799
C           -2.47428594319045        2.09601949064909        0.00510158215359
C           -1.54026215484328        1.11585851677856        0.00880235216718
H           -2.17275186112790        3.13564163936346        0.00144981402950
H           -4.51199229329492        2.67997825968108        0.00459408212663
H           -5.57767101709193        0.63656851202794        0.00839363768054
H            0.91604340206315        2.77403385701552       -0.00766665858003
