25
 energy: -43.447639197560 gnorm: 0.000756072333 xtb: 6.6.1 (8d0f1dd)
N            4.79015018264613        1.25992083348122        0.00263595694571
C            3.80325163743743        0.66751372689394        0.00264128127145
C            2.57163081349999       -0.01163241781334        0.00063429689831
C            1.41267566521883        0.81491144324251        0.00006456480734
N            1.56175612557106        2.15157952429787        0.00091842681322
H            0.75508325734602        2.74890141801530        0.00066345945992
H            2.48273823037232        2.55906571231349        0.00209005273520
C            0.13286151078739        0.25290571819084       -0.00137120020356
C           -0.25459682370683       -1.17723022745465       -0.00229973886610
C            0.47759149561130       -2.31905517407350       -0.00215934727973
N            1.82058320319356       -2.41579054623801       -0.00125953468017
C            2.66750385972666       -1.42557276612299       -0.00013483725272
H            3.69883740744540       -1.77791651856829        0.00041691314845
H           -0.02767999339163       -3.27841539992871       -0.00286734616471
C           -1.64098479286618       -0.78356086917503       -0.00322175859086
N           -2.76424233801051       -1.39806593941256       -0.00435043771717
C           -3.93913202886605       -0.73627213050893       -0.00499167594047
C           -4.21950179852992        0.61418345406162       -0.00481113547081
C           -3.38089342243064        1.74646345262473       -0.00381779126749
C           -1.99904365064312        1.79730716764924       -0.00262751361185
C           -1.20709875967251        0.66297203009748       -0.00227636851955
H           -1.53510479775641        2.77785917020719       -0.00200072743992
H           -3.89590909536683        2.69882532338506       -0.00400230194438
H           -5.27803696466020        0.84803116351636       -0.00558433015691
H           -4.78465982215524       -1.41482521778086       -0.00582839947325
