28
 energy: -46.625751308765 gnorm: 0.000788693582 xtb: 6.6.1 (8d0f1dd)
N           -2.08361648539971       -3.37304174364037        0.01788586485178
C           -2.14637757461776       -2.22426798610816        0.01503361082224
C           -2.20018980650179       -0.81552311199668        0.00992483236932
C           -1.00246269936288       -0.10063699793828       -0.00142467728148
C           -0.81693285047298        1.39192538368728       -0.00601448975719
C            0.59904846713738        1.18407648132035       -0.01017094399976
C            0.38591230032484       -0.27770251462582       -0.00553240692741
C            1.36686303311075       -1.28955560519373       -0.01079505647868
N            1.00333417130901       -2.58885467765870       -0.01496384651659
H            1.70412515739264       -3.30809528268445       -0.02440742374366
H            0.03549527321116       -2.86382020694914       -0.01625304270585
C            2.72887316090309       -0.98194631561430       -0.00814250850510
C            3.39948751234325        0.25784270574954       -0.00135123718055
N            4.75735639160881        0.19125117895080       -0.00603871350295
H            5.24895750706004       -0.67795686141898        0.08712641069625
H            5.25896509000819        1.05938210040937        0.05264969416812
N            2.99052036911893        1.53026197012558       -0.00832303445557
C            1.73335078017833        1.94702613091682       -0.01658962315922
H            1.63853240761698        3.02937757866505       -0.02408413213578
H            3.39036463026177       -1.84186883018377       -0.01035933390812
C           -1.69813394357501        2.41840510893099       -0.00420692803962
C           -3.10249119536845        2.26405855758020        0.00328600463427
C           -3.84685407006040        1.10549845625194        0.01307099158213
C           -3.47405477459407       -0.24531211989805        0.01686846060512
H           -4.29462754336322       -0.95309243700309        0.02643151095814
H           -4.92092526492855        1.25626667798876        0.01934205848225
H           -3.66914977699709        3.18676307834387        0.00218036670225
H           -1.31227977764373        3.43044287759266       -0.00905739087435
