23
 energy: -39.200049418871 gnorm: 0.000903863970 xtb: 6.6.1 (8d0f1dd)
N           -4.58129335457336       -0.05435941470739       -0.00281522466629
C           -3.22999716502371       -0.02751088699409       -0.00250256186934
N           -2.71389413800826       -1.24253067032277       -0.00205008347016
C           -1.41603840490684       -1.57669891538909       -0.00175155993226
C           -0.35160404022618       -0.73269182157744       -0.00195757601115
C           -0.29091009160061        0.75003991912200       -0.00236159112896
C           -1.34364373770175        1.66410446789479       -0.00264148612316
C           -2.66015530538862        1.29954566240738       -0.00267311537135
H           -3.39578660348898        2.09379819731176       -0.00290370319915
H           -1.09556626526475        2.71762379184882       -0.00283553346167
C            1.10196279450169        0.72381367641429       -0.00217196452606
N            2.08713557530975        1.59736933987136       -0.00221830247522
C            3.34059782432623        1.21740948826179       -0.00195442370085
N            3.95293764214585        0.02041213057775       -0.00184645124233
C            3.46867015983317       -1.18224764872237       -0.00174316916211
C            2.11720176617255       -1.65930322550252       -0.00160964876984
C            1.08340227792867       -0.79356313267036       -0.00178714837322
H            1.95825323160020       -2.73059217839897       -0.00144998156455
H            4.23853258835326       -1.95209577556371       -0.00177148740839
H            4.04996826641319        2.04034064156034       -0.00189309090101
H           -1.25723417728736       -2.65095088265648       -0.00132835876851
H           -5.02909201174201       -0.95466518363604       -0.00273947747654
H           -5.13392925717210        0.78337713227096       -0.00322361329792
