26
 energy: -47.959066774733 gnorm: 0.000362808276 xtb: 6.6.1 (8d0f1dd)
N           -5.14310578970968       -1.15838594224315        0.00062684914003
C           -4.00960812543408       -0.96746070928238        0.00026963231005
C           -2.61814053414608       -0.72571849792801        0.00012710511991
C           -1.84536493354855       -1.95096935363809        0.00023691141885
N           -0.58031750992290       -2.18156702082130       -0.00025027404667
C            0.32389183923374       -1.19205804009997       -0.00077380414124
C            0.19396539764703        0.27804314462776       -0.00027452649825
C           -0.87032975385874        1.10976597364837        0.00003303455941
C           -0.67091744984768        2.50803452851581        0.00050250414221
N           -0.52948851091998        3.64721107254707        0.00002336439588
C           -2.24875726019530        0.61594446207390       -0.00000499905148
N           -3.20439204914477        1.56883984143862       -0.00011794072892
H           -2.95698583628279        2.54408273717200       -0.00002617072663
H           -4.17675284161147        1.30759779088198       -0.00011093379234
C            1.66176911237755        0.37298811472948       -0.00155808831571
C            1.71060886030384       -1.10450752073456       -0.00185863008265
C            2.85319979302230       -1.93324807790565       -0.00742342379243
C            4.11781830606520       -1.44128029183882       -0.00948568814037
C            4.55755987017198       -0.05489870234944       -0.00167181404539
N            3.96986142476370        1.08154293507680       -0.00010390057337
C            2.61322659554572        1.31531305223152       -0.00432346636370
H            2.36375295302775        2.36972812881025       -0.00697329756727
H            5.64237225824277        0.04296558671524        0.00472666080193
H            4.93225394646500       -2.15357010737425       -0.01410203168799
H            2.69150915385614       -3.00315333307340       -0.01059216310800
H           -2.45804874680069       -2.84751170047978        0.00070584117413
