29
 energy: -50.346767774885 gnorm: 0.000887552906 xtb: 6.6.1 (8d0f1dd)
N           -4.85449031243497       -1.47997090306137        0.11920471708735
C           -3.86016111208169       -0.89421242079508        0.07208276068599
C           -2.64581055241572       -0.20249891177970        0.02679093320454
C           -1.48138286201270       -1.00975207739033        0.02070336368577
N           -1.62192774681290       -2.35605486364497        0.02690260250046
H           -0.80815872578087       -2.93633471297273        0.11044217282177
H           -2.53386573532920       -2.76865629833730        0.12824425837119
C           -0.20246246791860       -0.45731699436255       -0.01386574672162
C            0.20471124231826        0.96629438319103        0.01077764013667
C           -0.52834159939396        2.10958633982721        0.04794585492154
N           -1.85883887854727        2.21369879323836        0.00661087277988
C           -2.74645695918834        1.23641802890598       -0.03279717013343
N           -4.00867684044947        1.71477727414381       -0.13010874785613
H           -4.12272754290180        2.71288929216236       -0.14677955163808
H           -4.80818603724500        1.10563173975062       -0.14042884023507
H           -0.02180109095775        3.06764299518150        0.10185552676755
C            1.57928663070101        0.55969821412616        0.01788280108318
N            2.70961587527997        1.16876843433086        0.03618304179416
C            3.89148046147620        0.50933984088782        0.03568547207310
N            4.95143743171052        1.36649471315929        0.14614934329455
H            5.87895102571683        1.05141123240684       -0.07417972221856
H            4.74298634463410        2.34401712624288        0.03950098778919
C            4.15550308652791       -0.86246294379641       -0.02938912393073
C            3.30713512436367       -1.96807985845441       -0.08054701976436
C            1.91903075921825       -2.01457734748644       -0.07235448154051
C            1.13733310238220       -0.88049221700429       -0.01425531918668
H            1.45323472140214       -2.99225304124618       -0.12484374086728
H            3.81156449286907       -2.92531284583629       -0.13360055640560
H            5.21357982227020       -1.10095778308662       -0.03920182839880
