25
 energy: -43.453322581727 gnorm: 0.000665243670 xtb: 6.6.1 (8d0f1dd)
N           -2.65993238806546       -3.25194862244564        0.00714608660343
C           -2.43881960415018       -2.12639049483704        0.00634329546152
C           -2.14751122616348       -0.74161417951651        0.00389189697195
C           -0.85418472241991       -0.32600500266033        0.00287753177708
C           -0.28483922279701        1.08142800542746        0.00079634362862
N           -0.81943823302839        2.28199147132174       -0.00064340595855
C           -2.11777842499238        2.46662675570667       -0.00050512829739
C           -3.20175173295961        1.54731407946681        0.00104828035163
C           -3.24591948909223        0.17881566146948        0.00295164054918
H           -4.22658257017378       -0.28146709212047        0.00391474075482
H           -4.17068934898079        2.03405057394424        0.00067385239107
H           -2.39713437057173        3.51501559496752       -0.00181727889566
C            1.00501377090244        0.55677791086199        0.00111048815001
C            0.48965497148303       -0.82613713403376        0.00313310224863
C            1.16279708236219       -2.00892887315116        0.00449193530603
C            2.56976093547546       -2.07495905051227        0.00414109736840
C            3.49423847570216       -1.04209994970548        0.00248497824615
N            3.43347754299262        0.28739212060236        0.00069762774275
C            2.33495552378285        1.03378068211733        0.00002408249470
N            2.51597933383810        2.36209951953118       -0.00184063264174
H            1.71195435113060        2.96754211102324       -0.00239664192109
H            3.45071232205611        2.73215526507744       -0.00264374363257
H            4.53319485986970       -1.36725722112691        0.00262504804225
H            2.99421812434143       -3.06984794938145        0.00533881639349
H            0.60591969955831       -2.93716849132634        0.00589178996533
