27
 energy: -47.695453490522 gnorm: 0.000510944855 xtb: 6.6.1 (8d0f1dd)
N            5.41756122166810        1.06756840470012        0.00085330900967
C            4.29382819229543        0.83929583912979       -0.00045280703525
C            2.90009473213043        0.56783569966630        0.00033181482289
C            2.10782655650935        1.74195003693863        0.00127558491424
N            0.79444404768821        1.89931743672024        0.00163728328589
C           -0.02374998960593        0.88803279595923        0.00107798032314
C            0.14407176441391       -0.63419964187659        0.00001378372107
C            1.29452567928128       -1.37629898900064       -0.00069602294624
C            1.20235635961795       -2.78944543452757       -0.00184290666656
N            1.10209811198644       -3.93183468352575       -0.00240439360406
C            2.58182726187070       -0.78857613991997       -0.00054657867266
H            3.41986495142310       -1.47574148288960       -0.00126917751450
C           -1.26539782502433       -0.75672458419753        0.00014095564177
C           -1.41392316278239        0.71501341692430        0.00114921329502
C           -2.53510463624436        1.54562815435700        0.00183791319007
N           -2.32863811479536        2.87220321613208        0.00269324747644
H           -3.09302319733813        3.52448950715026        0.00320948033228
H           -1.37879993990426        3.20832115520325        0.00278994203663
C           -3.85104241592327        1.02683019951958        0.00166632423279
C           -4.26560123660060       -0.29032671334440        0.00085108321732
C           -3.58187385803800       -1.51345469972455       -0.00005034507065
C           -2.21422184766369       -1.75307322057326       -0.00039096829483
H           -1.87364456730849       -2.78085509275023       -0.00115595040326
H           -4.21532231966997       -2.39030729443049       -0.00055671279641
H           -5.34464402295320       -0.40314801994588        0.00092769774860
H           -4.63575855030060        1.77372044417451        0.00227362811702
H            2.65405517436762        2.67908751393113        0.00174732003958
