29
 energy: -50.366172386460 gnorm: 0.000770375659 xtb: 6.6.1 (8d0f1dd)
N           -2.40047470149190       -3.35934123661767        0.01037796754499
C           -2.39860447581770       -2.20894709221395        0.02022425844302
C           -2.36455869307963       -0.80008366555635        0.02795520972151
C           -1.13479631034278       -0.17153202304407        0.01306990715589
C           -0.82249103623709        1.30589942938816        0.02695244573704
C            0.55443738379432        0.98925934585251        0.01107205518256
C            0.24639928522561       -0.45186701866800       -0.00054240285987
C            1.15131776282961       -1.52219148462302       -0.06895295879554
N            0.72746567722718       -2.79304584761962       -0.19731277639538
H           -0.24861804228008       -3.03766872997265       -0.17087096944514
H            1.42418660474223       -3.51717288113875       -0.20658526890749
N            2.47706888351767       -1.39490686327908       -0.01526585420401
C            3.20792273227924       -0.28751801034545        0.06070700324120
N            4.52415846011531       -0.55606252195883        0.22478867979097
H            4.82799132594661       -1.51126689921338        0.26346259880626
H            5.17751575785554        0.20428111794905        0.25872667749974
N            2.97579673794652        1.02305662652334       -0.03069746590548
C            1.79358258416426        1.62946256354293       -0.06350298051681
N            1.85423454119557        2.98102989098936       -0.13762296597717
H            1.01963175135410        3.51263601261961       -0.29870865194707
H            2.75395691683177        3.40285888849074       -0.28403301227571
C           -1.64806846093622        2.39315420914295        0.06482508310490
C           -3.04400835196227        2.33281097390944        0.07624074425685
C           -3.87836475392099        1.22056524730018        0.06485231332603
C           -3.60777220906865       -0.13909158501210        0.04645461982264
H           -4.47151824474090       -0.79363776196326        0.04727453075217
H           -4.93673959739994        1.45760832210895        0.07611685380735
H           -3.55144729104661        3.28945222625468        0.09791657716978
H           -1.20369785190013        3.38243421445360        0.09135716506749
