31
 energy: -54.583993049687 gnorm: 0.000733239442 xtb: 6.6.1 (8d0f1dd)
N            5.29371210614213        1.88572379128085        0.06224282226009
C            4.29816873263752        1.30545231525990        0.03980736264521
C            3.09336574783122        0.58656930973128        0.01347042636860
C            1.92116593997780        1.36055757888068       -0.00048151242705
C            0.65745985388583        0.85948830692888       -0.01655104643505
C            0.09933288374979       -0.51636813752126       -0.02108495278547
C            0.79888489828271       -1.73933668895264       -0.03200544730736
N            0.11439927129331       -2.90070355390571       -0.06199345291594
H            0.60554006470383       -3.77704683197999       -0.05708533955399
H           -0.89147776039085       -2.91960865959626       -0.04738662182045
C            2.19578786342067       -1.81347271024637       -0.02104761835220
C            3.20049408722371       -0.83827643299136        0.00360235919417
N            4.46989564978463       -1.31687088708706        0.01817852519795
H            5.24942741604230       -0.68135074735103        0.03678728158275
H            4.64797415829907       -2.30458131319708        0.01509926043823
H            2.58070977680256       -2.82895393093411       -0.03036273512173
C           -1.20891872947641       -0.03020320019561       -0.02463839351874
C           -0.66373489120931        1.39217776346553       -0.02461216162590
N           -1.17834302815536        2.56804066763699       -0.02707583382521
C           -2.50792868023210        2.76173550883366       -0.03185766705182
C           -3.56278743520822        1.87764343282484       -0.02098083776101
C           -3.63338804389516        0.46516090238409       -0.00654058921245
N           -4.89396231046566       -0.07173743099266       -0.04344614639993
H           -5.68197041605229        0.52512874333691        0.13311450144168
H           -5.01597046061586       -1.05710591355124        0.11697451360443
C           -2.54283504702372       -0.43661522548774       -0.00476394593384
C           -2.83635623237371       -1.80844610763139        0.03297769649829
N           -3.05975560794966       -2.93879682338555        0.07555286254112
H           -4.53959960506417        2.35082094112621       -0.02442598159480
H           -2.76447531627912        3.81546492032656       -0.04155354484662
H            2.04122472641439        2.43640633369073        0.00424348361703
