33
 energy: -58.821801402667 gnorm: 0.000941287858 xtb: 6.6.1 (8d0f1dd)
N            5.61381170948687        2.16062786624252        0.00205399899808
C            4.74315759983766        1.40951535273116        0.00702079978226
C            3.69170349983143        0.47303047653027        0.01039676555987
C            2.40337144832475        0.96747348851275        0.00549993340129
C            1.26823144270557        0.17080731200081        0.00884574573534
C            1.10921629352044       -1.31526315998937        0.01268640876391
C           -0.32314869628621       -1.12913152147270        0.01363127775336
C           -0.11619574350328        0.34264749717489        0.00202413601070
C           -1.04462044686589        1.38929014298219       -0.00085977855237
C           -0.53124356154343        2.70163027992420       -0.00948744073864
N           -0.12561804259698        3.77743063093087       -0.02148582972493
C           -2.43889117517558        1.23520594455592       -0.00117682948870
N           -3.18649445479961        2.37501100580423        0.01463496820376
H           -2.72682242967840        3.26667639813298       -0.04624117828952
H           -4.18766925441886        2.33902801073464       -0.05337317917932
C           -3.17325918584625       -0.00075266438531        0.00304407435236
C           -4.57391961163173        0.17718819182512       -0.02599394379675
N           -5.71734336133603        0.30566027921940       -0.05895853650066
C           -2.77721557943909       -1.34673363505797        0.03217683046717
N           -3.75593858242280       -2.29147826896830        0.05925188909649
H           -4.72639429293412       -2.03119574517582        0.03607548740258
H           -3.51908894353339       -3.26597980299480        0.04548147281451
C           -1.44760843453966       -1.87037634424862        0.04025847603234
H           -1.37870548021707       -2.95186938933888        0.07164228799854
C            2.01500140221843       -2.32408367219261        0.00299813670421
N            1.64397549260569       -3.63874135196745        0.03158115615379
H            2.33551120389110       -4.33895479804968       -0.17166402001645
H            0.68638109466018       -3.87315771490526       -0.15629278637216
C            3.44817299861483       -2.07232415460522        0.01642517617559
C            4.12410061803863       -0.90588256819194        0.02004309812464
H            5.20572196229893       -0.99680659290313        0.02929733236437
H            4.04600316505491       -2.97623395596484        0.02685475334427
H            2.26889117007865        2.04263824410981       -0.00196227417989
