30
 energy: -50.057326716799 gnorm: 0.000599412090 xtb: 6.6.1 (8d0f1dd)
N           -5.74814326855252       -0.50407355106202        0.00784803644647
C           -4.60099033692169       -0.41626158069651       -0.01678655354113
C           -3.19571353634700       -0.30159910489818       -0.02946968734323
C           -2.52544836338001       -1.55246122224747       -0.05193949034843
C           -1.17453538045957       -1.81972763012013       -0.05168455056642
C           -0.20913452542476       -0.82597197488668       -0.02425668344541
C           -0.41617499354783        0.67760848069529       -0.01099180163393
N           -1.42887665460795        1.46364840967725       -0.00197593543664
C           -2.70856266376684        1.02011421288682       -0.01161428479802
N           -3.59978450176635        2.05387798504778       -0.04193388379463
H           -3.22526496967630        2.97377750494202        0.10695076216664
H           -4.57863621982053        1.88587330638198        0.11082718814118
C            1.00508841736561        0.85137045856297       -0.00284802124605
C            1.16834579802178       -0.61930376390637       -0.01203109862697
C            2.35509571996402       -1.38286195764579        0.00955741677239
N            2.23232555307141       -2.73883677053090       -0.02072483114243
H            3.03694490828572       -3.31523385780236        0.15389487642755
H            1.32576228233770       -3.13864264979459        0.13992848988966
C            3.62022044782277       -0.82186597323882        0.01903024741147
C            4.03711449123083        0.53411015522053        0.00640034570076
N            5.39533454895520        0.69899265769844        0.05276630186817
H            5.78094792778828        1.61423130791251       -0.09874009950776
H            5.99868493233621       -0.08705868936360       -0.11124039287732
C            3.29057655372214        1.71307152229764       -0.00096949811771
C            1.90146139505978        1.87442135296594        0.00145766200666
H            1.51798743307514        2.88629611302641        0.00055274382573
H            3.87498260400479        2.62486233303728       -0.00467969605391
H            4.43691971080213       -1.53658371268115        0.03711476785500
H           -0.87535773572679       -2.86208925582522       -0.07852340091730
H           -3.19317601214537       -2.40602781625445       -0.07016470551443
