30
 energy: -54.077433266551 gnorm: 0.000850209216 xtb: 6.6.1 (8d0f1dd)
N            4.82099952319424        2.46876698300668        0.01257578759620
C            3.95372044115769        1.70776366842552        0.00708644338723
C            2.91144307822444        0.77067428401171        0.00245867271726
C            1.59888106383916        1.34141651126263       -0.00241730039783
C            0.46459670876697        0.62004314453970       -0.00204710745283
C            0.21615892927939       -0.83806899353149        0.00464367314014
C            1.12494470338951       -1.92860398506475        0.00661493517551
N            0.55677151828597       -3.15511921250288        0.02200477777905
H           -0.44670446154044       -3.20690116559416       -0.01906374493737
H            1.10900256075544       -3.99207464794086       -0.02785265236921
C            2.49316095024116       -1.76800567158985        0.00220562722529
C            3.28853461365882       -0.58726267853460        0.00259277219666
N            4.62643321395892       -0.82792250893688       -0.00368732158717
H            4.98022854787218       -1.76601380080810        0.01731122405343
H            5.27430830230659       -0.05890580898748        0.01177550159410
H            3.06974327105819       -2.68720535983868        0.00029259473916
C           -1.15329238050857       -0.67033953573090       -0.00439488830627
N           -2.24151281757624       -1.44304804495561       -0.00563255103272
C           -3.42524986861224       -0.86574141102885       -0.01972397687074
N           -4.49082073682515       -1.71156355048378       -0.08636073437773
H           -4.32882321973080       -2.68687850259581        0.08789583917160
H           -5.39976215727703       -1.32287170228069        0.08818711168857
N           -3.81163520772849        0.43218543879729       -0.00764826605182
C           -3.13552272674502        1.54280086670928       -0.00354988150357
N           -3.86196801693703        2.67985690384203        0.01914002398500
H           -4.86349505247119        2.63123550458385       -0.00690298037234
H           -3.37866318924220        3.55888834946494       -0.00437127406883
N           -1.77841775780658        1.81745276760931       -0.00701575445466
C           -0.96852482840269        0.82859774569877       -0.00832817286132
H            1.54574075321481        2.42212165655370       -0.00674885020496
