29
 energy: -50.341799915675 gnorm: 0.000466503827 xtb: 6.6.1 (8d0f1dd)
N           -5.23047225715875       -1.42892077467553        0.04160307722885
C           -4.27658858321675       -0.78230068872159        0.02509415899288
C           -3.09442065457144       -0.02890641301910        0.00645156830963
C           -3.27407232231984        1.39744672890872       -0.02321553674345
N           -2.50132746565967        2.42781913237019       -0.04542646482613
C           -1.13148602396724        2.42924750913851       -0.04648046208412
C           -0.33803583224883        1.34822907611921       -0.02596600005412
C           -0.64603564531562       -0.09624372220887       -0.00105869440937
C            0.70040811912867       -0.43253117134032       -0.00020371258756
N            1.38982770679245       -1.56976881747021       -0.00370779395807
C            2.70353377366759       -1.57980264622737       -0.00219500216211
N            3.24631178482593       -2.83558010717190        0.05372587272776
H            4.20317043400993       -2.97792050650017       -0.21596758597154
H            2.60743232757623       -3.59827789656123       -0.09347281740805
C            3.65395567804601       -0.50651900925913        0.00774131914756
C            3.51698804335073        0.85971956484529       -0.00212772002778
N            4.65033053375224        1.62454295753483       -0.04238711437246
H            4.57897356266342        2.60751505312388        0.15191261691188
H            5.53976980928085        1.19086710649812        0.13418660700112
C            2.28071230828536        1.60779346172780       -0.02485227457508
C            1.08620592335300        1.00801682257881       -0.02176771304591
H            2.35853123919037        2.68775744831176       -0.04152453860186
H            4.68199045574218       -0.85543800197389        0.02718766328876
C           -1.89062709018383       -0.75535354809688        0.01841323233475
N           -1.87992928195988       -2.09896058676225        0.04759494385067
H           -2.73991660888299       -2.62102935736685        0.06903874735040
H           -0.98997271217391       -2.56798652343579        0.06204717911871
H           -0.71310203544096        3.42966273265576       -0.06637456914160
H           -4.32801081906534        1.67802596207828       -0.02779553469367
