23
 energy: -39.210407637532 gnorm: 0.000411305515 xtb: 6.6.1 (8d0f1dd)
N           -4.49542929537585       -0.02120612567067        0.00055251137467
C           -3.14947763396655       -0.00919808447991        0.00072474981138
N           -2.64342681775978       -1.25386286014421        0.00062497726673
C           -1.36424442036594       -1.58969579835034       -0.00047552355451
C           -0.29669738604662       -0.72606069534046       -0.00197979258374
C           -0.30854686435626        0.76221294882955       -0.00147934552390
C           -1.39255123191903        1.60344234642998        0.00061398011558
N           -2.66632764488961        1.24430198320875        0.00147093394339
H           -1.24522499413128        2.68028099116892        0.00154069431428
C            1.10858241639102        0.79263727859534       -0.00267232702207
C            1.11902498712713       -0.71946845953615       -0.00309073472037
N            2.05832681030134       -1.61627920805638       -0.00411073132641
C            3.34379846270601       -1.28797959568791       -0.00495877705615
C            3.98551502301944       -0.04307797698149       -0.00514412581354
C            3.48849061077366        1.25420812011420       -0.00450103955551
C            2.15103544113747        1.67404270642741       -0.00338145847591
H            1.95170817984073        2.73900170799629       -0.00301411404645
H            4.23172084109572        2.04212049910285       -0.00488969164190
H            5.06772597688581       -0.11324399971562       -0.00599497361196
H            3.99262779995493       -2.15791286557432       -0.00567652137790
H           -1.18987697863401       -2.66127322686638       -0.00011690516317
H           -4.99206320639026        0.85207524329799        0.00089760463910
H           -4.97542555779802       -0.90374953076744        0.00031104190833
