30
 energy: -54.069458676421 gnorm: 0.000863151435 xtb: 6.6.1 (8d0f1dd)
N            5.39662728441313        0.12434778234105       -0.08023302280617
C            4.24729143678270        0.06436391635227       -0.02241661438887
C            2.84222537383822       -0.01462363881004        0.01520204741300
C            2.18993376902124        1.27103260035873        0.00286250676946
N            0.90805060443705        1.57976099426694       -0.00265535595153
C           -0.04646321130507        0.67494728023758        0.00369972255445
C           -0.06125356894478       -0.84142812122411        0.01179554886239
C            0.96500543541914       -1.71902126581187        0.04279011099743
C            2.33241573519601       -1.32577883557979        0.05131933428178
N            3.23201979987235       -2.34920952107266        0.12650561043318
H            2.91700800334774       -3.29570709669641        0.01914155741544
H            4.21673638583451       -2.16284255435913        0.04778730096352
H            0.77528103590165       -2.78692478007352        0.06956532823605
C           -1.48760754633051       -0.79475889396386        0.00351626512868
C           -1.43364770204220        0.69312308047719        0.00266634082778
C           -2.49231809871755        1.61621149679470        0.01539297097465
N           -2.19354826969616        2.92624136973306        0.02604539501050
H           -2.93979307737319        3.59861143539090        0.05275254084549
H           -1.22902483424107        3.20838144834025        0.04800692889525
N           -3.78784010490605        1.30739159455386        0.01343244379194
C           -4.30314629803936        0.07847676679904        0.00425092729814
N           -3.88497025715854       -1.15174448696844       -0.00274814298287
C           -2.59365112055044       -1.60122909144113       -0.00281092711769
N           -2.51475884055709       -2.95915078581702        0.02421334118977
H           -3.37503416678822       -3.45963592443244       -0.11763278582438
H           -1.64330114100677       -3.41430856476784       -0.17613090192396
H           -5.39474602553783        0.12693194168400        0.00101049308810
N            3.00598408957602        2.36652041154331        0.03806233637513
H            2.56524755042477        3.25765574761205       -0.10381474958502
H            3.99127584093030        2.27930091423323       -0.13735687027139
