27
 energy: -46.896465377007 gnorm: 0.000667408406 xtb: 6.6.1 (8d0f1dd)
N           -1.65356911683177       -3.17610158408065        0.05346955427306
C           -1.64272334075008       -2.02356885101644        0.02549268838225
C           -1.61791810163716       -0.62250517627429        0.00280514147515
C           -0.38049548048805        0.03331096028001        0.00666306796472
C           -0.12549431986853        1.51564743878426       -0.01504414817469
C            1.28555460658038        1.24159715740176       -0.01588037612980
C            0.98885114261793       -0.21466837644513        0.01604888041435
C            1.91965856194230       -1.28744240422450        0.01372702446337
N            1.48584024379537       -2.55729485127004       -0.00725922695910
H            2.18459336599329       -3.28136357232334       -0.00918412126730
H            0.50878119668206       -2.80095794422832       -0.00498317172200
N            3.24141639509610       -1.17365599003488        0.03014422244009
C            3.98006082455313       -0.06309097984950        0.02585176923831
C            3.71453164556869        1.28879880952549       -0.02165495297773
C            2.45340794319046        1.92675316591439       -0.04129999215653
H            2.43291437174091        3.00890581405268       -0.07057427072364
H            4.57917280175276        1.93833664828920       -0.03236490187372
H            5.03765567237991       -0.32092593796002        0.06020303168082
C           -0.96955825343947        2.56737351832846        0.00709333017642
C           -2.38540879788138        2.41563081500169        0.04827062668477
N           -3.14003088140909        1.36247989612297        0.02729909992719
C           -2.86181031515646        0.05141494023718       -0.02508506760591
N           -3.99860288992842       -0.69778095591597       -0.13252305489617
H           -4.87121932364097       -0.21342379560730       -0.01907211987562
H           -3.96884169173987       -1.69445246727547       -0.00645821695474
H           -2.95853478122769        3.33783285126073        0.10788388136724
H           -0.57807109729436        3.57612866530699        0.00811807062922
