32
 energy: -59.106661637599 gnorm: 0.000745603784 xtb: 6.6.1 (8d0f1dd)
N            5.40275539308024        2.08314894619906       -0.00398631529353
C            4.55985311567448        1.29854651613030       -0.00327608189840
C            3.54433215934941        0.32709999908600       -0.00281036742076
C            2.20229780954746        0.86893232614934        0.00592922596590
C            1.09989171905915        0.11469556627818        0.00760660703890
C            0.86904039581817       -1.34683894973229        0.00160694501944
C            1.81107389175408       -2.39075879235284       -0.00667086094869
C            3.15431520258029       -2.21661862430096       -0.01188781253410
C            3.95222161704137       -1.00182854249852       -0.01156436753744
N            5.28834449762281       -1.24473183218046       -0.02192097508842
H            5.93932795702385       -0.47756548721233       -0.02063792199368
H            5.64229139690512       -2.18371743168951       -0.02474970588788
H            3.75940165011590       -3.11558696140380       -0.01769506215128
H            1.42187542887057       -3.40048785978562       -0.00859831349301
C           -0.51158613026192       -1.17080232269285        0.00634011871062
N           -1.57919286096097       -1.96577310774275        0.00844760607384
C           -2.80374050772713       -1.52290950787124        0.01310532431754
N           -3.74685148543618       -2.49812647780663        0.04861895278905
H           -3.42210636362781       -3.44748480843275        0.01032170694631
H           -4.72759365230722       -2.29701141187451       -0.02497534324438
C           -3.32439437471582       -0.15054758329927       -0.00090869857360
C           -4.73094919644878       -0.08096281722781       -0.02186243092644
N           -5.88114912323773       -0.02071091453725       -0.04450632724427
C           -2.68809246987827        1.08610342723973        0.00052955772163
N           -3.43877692104921        2.21111256921100       -0.01054117954899
H           -2.99846314630435        3.11534992664059       -0.01156150764357
H           -4.44314407751754        2.15420872544030       -0.01972477699249
C           -1.24728511517715        1.31110784778780        0.01062351213477
C           -0.78973929686793        2.64728380457723        0.01453225415513
N           -0.43364527680085        3.73892627670851        0.01836228678952
C           -0.35108354161313        0.29780131224596        0.01109170425220
H            2.12736668628896        1.94850516354722        0.01106403620592
