32
 energy: -54.311073038308 gnorm: 0.000947705431 xtb: 6.6.1 (8d0f1dd)
N           -4.46978804284317       -2.72629577131117       -0.03699138922396
C           -3.61287646458651       -1.95670990647009       -0.02636782791769
C           -2.53851746303267       -1.05048808368885       -0.01273223670688
C           -1.22898033722812       -1.63803710221904        0.00053522443015
N           -1.14589043400713       -2.98832490687924        0.00510932710609
H           -1.98237209044131       -3.54664361649437        0.01091915398928
H           -0.24870870065971       -3.43549643927198        0.02710652371275
C           -0.08366848384104       -0.86808765135470        0.00458381312046
C            0.13287273246020        0.59820552781333        0.01521259257870
C           -0.73552395079004        1.66329667601116        0.01945852173930
N           -0.27460013299414        2.93692316173652        0.04757411607195
H           -0.91988249708218        3.70796080559404        0.02704569642456
H            0.71067585619119        3.11433783546638        0.03649077766411
C           -2.16487629276275        1.47948732427634       -0.00191183108115
C           -2.92831542447312        2.65939008117214       -0.01391218766808
N           -3.52327031971782        3.64559495286488       -0.02660790189227
C           -2.89371317656107        0.29695567938414       -0.01648218139620
H           -3.96936517838097        0.45527816117001       -0.03200840911200
C            1.54483546419165        0.39148632520824        0.02167814071851
C            1.31884030044068       -1.08579677904150        0.00937660098103
C            2.22466515666122       -2.11144568797222       -0.00400639559681
C            3.60962305345827       -1.93734195192954       -0.00183051214165
C            4.35990612872677       -0.77225724164596        0.01128077944313
C            3.99980154726953        0.58079451439794        0.02579252326302
N            5.03275217460159        1.49244256635996        0.10485588311291
H            5.95941039224829        1.17119054990315       -0.11858841782523
H            4.83714935055195        2.44856012299344       -0.13815075542514
C            2.69515307760510        1.11862535077332        0.02736272656731
H            2.63721977532610        2.20226327381351        0.03793989343641
H            5.43341095218859       -0.93290547234244        0.01241075802141
H            4.19132359738535       -2.85069525164807       -0.01537582937599
H            1.86826646129533       -3.13491708226886       -0.01944740581779
