22
 energy: -39.473992516423 gnorm: 0.000733757113 xtb: 6.6.1 (8d0f1dd)
N           -4.56635944793602       -0.07480057084963        0.00238985139475
C           -3.21797037788848       -0.04607376084225        0.00223360017903
N           -2.69123672811158       -1.24974797700758        0.00205537752025
C           -1.38617040832613       -1.57158168109316        0.00202750535362
C           -0.33688568225997       -0.71151347982983        0.00246458204343
C           -0.28100833574151        0.77124455626862        0.00264651719881
C           -1.35339739833281        1.67864596447123        0.00241724499783
C           -2.65718097527987        1.29832074249995        0.00216836055439
H           -3.40538406041592        2.08086755067026        0.00201735874815
H           -1.11453547613045        2.73416643364521        0.00243766678644
C            1.10410283627769        0.76953290759402        0.00284614213579
N            2.10466132363457        1.64002743194445        0.00344147157232
C            3.33494475152518        1.20322475480397        0.00370218760557
N            3.87427877480389       -0.03628086351164        0.00307593614426
C            3.32947782590026       -1.20618380444161        0.00246800360585
N            2.02902416532855       -1.63989352246794        0.00251373191895
C            1.10098610144164       -0.75663901303486        0.00263025764609
H            4.03382261723912       -2.03477369870296        0.00185462963431
H            4.09139661851678        1.98223892615554        0.00441651832336
H           -1.20787268867960       -2.64120813211704        0.00170105995950
H           -5.12240561368132        0.76122122901249        0.00279603453655
H           -5.01360676428402       -0.97600558706722        0.00256170194076
