30
 energy: -54.863303866754 gnorm: 0.000811535398 xtb: 6.6.1 (8d0f1dd)
N            5.26657635816017        0.28315808746098       -0.01980562962981
C            4.11541698702478        0.28075241334855       -0.00398319380615
C            2.70580789033712        0.30224066983662        0.00659732564620
C            2.16522955868972        1.59368524022207        0.00206011479317
N            0.85878102795261        1.99934594331104        0.00612354663416
C           -0.11777022921375        1.18271271402629        0.00717265310635
C           -0.29324786541441       -0.29529136909464        0.00179632087053
C            0.71895076737421       -1.28549608751432        0.00327310132037
C            0.33094346633973       -2.63086945571532       -0.01077991016689
N           -0.00910405063223       -3.73307235309104       -0.03131084618688
C            2.08806615958234       -1.00257213182761        0.01584762830716
N            2.94884891021718       -2.05724551350115        0.06244123729463
H            3.93964595927571       -1.91244574939529       -0.02122770625947
H            2.58808552021754       -2.99290741723215       -0.00718221161133
C           -1.67311564189834       -0.13824196259628       -0.00332245004604
C           -1.56743962543747        1.33646836669196        0.00444674828723
C           -2.47620315080971        2.32578121584773        0.00758053823848
C           -3.88311087914721        2.07235344553619       -0.00164505405800
C           -4.51617005068731        0.86500298532092       -0.01232247665028
N           -4.10939288578160       -0.42510432927276       -0.00835175712388
C           -2.89526225130505       -0.90723004703625       -0.00284677299444
N           -2.81426229801982       -2.24931437680286        0.00772571740431
H           -3.67980037001113       -2.76193596491947        0.00759021114388
H           -1.93872899587857       -2.74619987857876        0.00292419214294
H           -5.60348350459819        0.90317746943081       -0.02375252217531
H           -4.51944175390306        2.94658381717580       -0.00309589765980
H           -2.14332569498821        3.35428770302875        0.01464383468779
N            2.99113679668266        2.66202753436453       -0.00881391225198
H            3.99113243788157        2.56224735655659       -0.00799598947886
H            2.56632843879077        3.57241467121907       -0.00947466757800
