25
 energy: -48.243827661444 gnorm: 0.000593464087 xtb: 6.6.1 (8d0f1dd)
N           -5.34929616035330       -1.78384875118244        0.10724438899823
C           -4.40169670359965       -1.13795940764516        0.05217961129052
C           -3.22807958041953       -0.35909659014433       -0.02520301507930
C           -1.98794615161643       -1.10435736923257       -0.15399557939116
C           -0.79734062578647       -0.51207672176717       -0.00363819475105
C           -0.38855460699601        0.91722341412796        0.06737596308274
C           -1.23075116453170        2.02486730177896       -0.18066903163593
N           -2.51526049531763        2.01083802750617       -0.12576211841991
C           -3.36218098361457        0.99964853606372        0.14051335509861
H           -4.34721446097184        1.36548923422397        0.41852606231683
H           -0.77909810209303        2.95908986814595       -0.50182808402739
C            0.95940718139088        0.58615483881691        0.03098466798683
C            0.62660089428360       -0.86165820581572       -0.00797374098055
N            1.29144183776204       -1.94548630284489        0.00612205827484
C            2.67829159018891       -1.91968026339694        0.01579752123529
N            3.18979499576858       -3.16034594513633        0.00854179319828
H            2.56653434154554       -3.94829755544028        0.00426174518699
H            4.18707315966701       -3.28252573620762        0.01003391782003
N            3.54703146532062       -0.94355535949415        0.02563127021512
C            3.39233974964049        0.38101490936858        0.04193534531260
C            2.24751069650859        1.16329348310249        0.06302864642835
C            2.36634523106573        2.56816238678360        0.10810830573271
N            2.43994628170048        3.71300224116382        0.13717168041603
H            4.34611345145216        0.90070544360245        0.04491028106170
H           -2.06196507609524       -2.17707674047680       -0.26772617087051
