33
 energy: -57.232068109638 gnorm: 0.000677375734 xtb: 6.6.1 (8d0f1dd)
N           -1.69987578192038       -3.74481727194874        0.00379841223380
C           -1.77999342086836       -2.59383686060322       -0.01194317201541
C           -1.84435658097271       -1.19418664882492       -0.01439364519376
C           -0.66250552404492       -0.47047928987663       -0.01519221906868
C           -0.48032748261730        1.04918208419097       -0.01338228165651
N           -1.27964494238923        2.07353071952445       -0.00102475234520
C           -2.61153355174387        1.93493125015388        0.02143013498856
N           -3.26551834600699        3.14859218824364        0.11698392477167
H           -2.69181660740985        3.94813678805800       -0.09669151513770
H           -4.21747109291934        3.19625947156895       -0.20480364780193
C           -3.41128230558710        0.78554894804969        0.01716237423933
C           -3.12848003206284       -0.57917389386847       -0.00547307644749
N           -4.21374779202296       -1.42922907384994       -0.08649670354496
H           -4.06015519868522       -2.40224285510593        0.12246923630403
H           -5.11296561114316       -1.06208266691503        0.17400462022107
H           -4.47526597360425        1.00548523151527        0.03231794781073
C            0.90538260663911        0.86672057143269       -0.02462182072590
C            0.72742443436498       -0.61222827757910       -0.02243685705042
C            1.73041919887326       -1.58885339078171       -0.02379119141420
N            1.40574401092123       -2.90269317622419       -0.01047660670064
H            2.12739439153756       -3.59899311207326       -0.05574246732816
H            0.44618802723256       -3.20191795698446       -0.04482701591240
C            3.08808273391179       -1.24234868031336       -0.02133152056204
C            3.72709540849255        0.00871320632984       -0.00882099928614
N            5.09205325896878       -0.03535095734834       -0.03803748395335
H            5.58453979704000       -0.89140390955525        0.13928296441133
H            5.57215988365553        0.83797731665478        0.08861467514875
N            3.30364797259973        1.27477869958296        0.00222940997553
C            2.03481712345642        1.67981102033928       -0.01812531713755
N            1.84657644422808        3.01895598122042       -0.04290083413689
H            0.90760316851751        3.36767651756397        0.03792906603670
H            2.63964614997269        3.62611839446610        0.05552726206827
H            3.77071464138672       -2.08553390644230       -0.02729362029035
