28
 energy: -50.625934126947 gnorm: 0.000429835517 xtb: 6.6.1 (8d0f1dd)
N           -1.26745041771521       -3.76233635875113       -0.00127437046388
C           -1.34026602650791       -2.61487594199673       -0.00199472421841
C           -1.49022661799048       -1.21626172543357       -0.00178438593949
C           -0.42335512139128       -0.38572736483435       -0.00138044883548
C           -0.34092690916432        1.09679980778385       -0.00108143688932
N           -1.27651538376531        2.04947461047996       -0.00153055345605
C           -2.54815541152256        1.75347459849476       -0.00260115666105
N           -3.39653474210026        2.81131816006823       -0.00652010925080
H           -3.01642768635740        3.73886654492584        0.00217742288772
H           -4.38538325911555        2.64971776292080        0.00317124511524
N           -3.23778004056791        0.57423010735334       -0.00213687668600
C           -2.85681058252485       -0.65934910733176       -0.00192735598065
N           -3.84906373056906       -1.57706402305968       -0.00159383740449
H           -3.64971839655862       -2.56218095304793       -0.00128461493853
H           -4.79973850245298       -1.25278183354195       -0.00187997956507
C            1.04470654353178        1.04269267253653       -0.00002696171432
C            1.03360689543379       -0.44126201271637       -0.00036479006035
C            2.01191136811913       -1.35739123144399        0.00090402174170
N            3.35628996798783       -1.10333463013543       -0.00024194403781
C            3.93381814793202        0.05538353631843        0.00119666749256
N            5.28941326098299       -0.01667740631481        0.00439138972845
H            5.70727773050645       -0.93047354460611       -0.00834013233264
H            5.87062092445921        0.80028417875768       -0.01712355940777
C            3.44141843764669        1.44602133599906        0.00419341627940
C            2.16727610742358        1.89623832364524        0.00287687064682
H            1.98286999590528        2.96301807321999        0.00450519981120
H            4.23473662360131        2.18301782280463        0.00724307525224
H            1.78300529667348       -2.41714650009476        0.00124682638685
