24
 energy: -43.731660742993 gnorm: 0.000946855909 xtb: 6.6.1 (8d0f1dd)
N            5.60218651808334        0.29163653835273        0.04745675228151
C            4.46569168367176        0.14336479698705        0.00509747097787
C            3.05859714512893       -0.03330367118036       -0.03832374895012
C            2.34154075229431        1.20027998934285       -0.10660303281673
N            1.05807105091547        1.44342769131401       -0.17388470255303
C            0.16037681899413        0.48277829020603       -0.14728053159364
C            0.23667142857352       -1.03267259985923       -0.05269528488422
C            1.31416476003701       -1.85226566552999       -0.03354011035626
C            2.63522807096302       -1.35394957833334       -0.01832124578338
H            3.42413167554815       -2.09621775353090        0.02056297811473
H            1.18229456186514       -2.92660346839749       -0.01979119772739
C           -1.19248890880410       -1.06201684226605       -0.06849686872796
C           -1.22789733449128        0.41442119129563       -0.20534809669089
C           -2.33550128115159        1.27174458464740       -0.00276978993629
N           -2.10490280131428        2.56584948611075        0.24756378326143
H           -1.15953300891579        2.90994742306080        0.22574377216035
H           -2.87769147266570        3.18299818455926        0.42638354070592
N           -3.59898400919081        0.87244296691795       -0.08258052693829
C           -4.01336229171605       -0.37393806241983       -0.23928413559863
N           -3.51912183214320       -1.54249113338061        0.07411845027658
C           -2.24419882835922       -1.87686883652295        0.25447261174111
H           -2.08499080919036       -2.88289161999599        0.62683530588502
H           -5.04044575479841       -0.42810902470378       -0.60028746804004
H            2.95625434666614        2.09501068622542       -0.11492360290726
