26
 energy: -43.174374861068 gnorm: 0.000285894615 xtb: 6.6.1 (8d0f1dd)
N            4.77331873200703        2.20357654808501        0.01417892804945
C            3.92030974025846        1.43270664945317        0.01049286365826
C            2.87881982922265        0.48278779278598        0.00558653972170
C            1.59613570070700        0.97078990798716        0.01303448585550
C            0.45176145705093        0.16713634027574        0.01044482875321
C            0.33219531905245       -1.31167198611681        0.00450086181686
C            1.23455275398817       -2.29867477239953       -0.00530849722554
C            2.66101504479765       -2.06698573533253       -0.01281579729641
C            3.33446335640797       -0.89835405729613       -0.00820268971242
H            4.41710754101190       -0.97354559812106       -0.01559492423829
H            3.26098392518683       -2.96838512238885       -0.02368448482279
H            0.90942811710580       -3.33073016070020       -0.00856892063730
C           -1.12407510460778       -1.16132717163987        0.01092275370442
C           -0.93077239894570        0.31455981279774        0.01617563383525
N           -1.77780178623625        1.34344040153044        0.01136499928045
C           -3.07191152214373        1.19169072124934        0.01736492818600
N           -3.78289417839362        2.35297602309779        0.06596942167274
H           -4.76449523252188        2.36750504162921       -0.14311884726522
H           -3.25851025553928        3.20507485876721       -0.03444657025993
C           -3.88570010315362       -0.02055335780562        0.02103747354581
C           -3.54450456167885       -1.32828115760361        0.01689847178181
C           -2.23216430520678       -1.91609218182811        0.00937550665739
H           -2.17125754654199       -2.99641629198747        0.00377559771027
H           -4.36173233505366       -2.03987110281293        0.01990025999454
H           -4.94898125230335        0.19328380204611        0.03081114580523
H            1.45434522852967        2.04471401082787        0.02203304002896
