31
 energy: -54.596059653110 gnorm: 0.000801019841 xtb: 6.6.1 (8d0f1dd)
N            5.99432616549261        0.83107716466078       -0.03404434957012
C            4.85223824645244        0.72227804325898       -0.02837212950867
C            3.43879651407093        0.59470826748243       -0.02060086820506
C            2.75709427613796        1.81561372121678       -0.03742240351394
C            1.38101726535650        2.04960766979270       -0.03203808105829
C            0.42308959310465        1.07801246163079       -0.00385850664499
C            0.53514917374619       -0.43629178538428        0.00893372169169
C            1.67630426305047       -1.21907662940975        0.00948106021468
C            1.54707303134167       -2.62357918754048        0.02212963588048
N            1.42480549135834       -3.76710320100395        0.03299947301261
C            2.99170734425387       -0.73101137689448       -0.00022170261203
H            3.77106698996811       -1.48473356254832        0.00648142688967
C           -0.86757994907043       -0.52419134480482        0.00980156658139
C           -0.98232554463104        0.94336305838651        0.00100862170552
C           -2.10594550786618        1.77822916094753        0.02201932201628
N           -1.93622395659270        3.12087284206589        0.04473053157863
H           -2.75355590442491        3.69855789467853        0.12463833326541
H           -1.02445648844121        3.51754792670298        0.16770697166273
N           -3.37421115658269        1.39178294717826        0.00181646779210
C           -3.84862187684313        0.14578813987943       -0.03618972133352
N           -5.20630124907200        0.14861000969233       -0.10018956677593
H           -5.67228540982221        1.03717537758273       -0.08546058872442
H           -5.74062370823820       -0.69916515025272       -0.08681548711977
C           -3.24106996735030       -1.12050342321638       -0.01305167478983
C           -1.89359924521457       -1.48781326855025        0.01411765258285
N           -1.59296239939970       -2.80282473800555        0.04332905494437
H           -0.64077451428835       -3.12736138148002        0.04569662592727
H           -2.32974428865545       -3.48506352558896        0.03168637705379
H           -3.94059564460123       -1.94882813880721       -0.02468886463461
H            1.07290218408942        3.08905153030743       -0.05638088797929
H            3.39191844367108        2.69334362922315       -0.05786719052898
