30
 energy: -55.665885866522 gnorm: 0.000716473823 xtb: 6.6.1 (8d0f1dd)
N           -5.24452536967224       -1.93588960813780        0.00014378756953
C           -4.32420083161781       -1.24829923475163       -0.00108850328246
C           -3.19214894069894       -0.40872628632702       -0.00035358269616
C           -1.92007389431732       -1.06389160547196       -0.00052900470861
C           -0.76267717017013       -0.37667920501205       -0.00040638497564
C           -0.44865899945655        1.07429893545090       -0.00014350553514
C           -1.36956585780155        2.15750878228562       -0.00002265035305
N           -0.93072713318698        3.42302078407677       -0.00005197709805
H            0.04735431732080        3.66685279118505       -0.00004786538770
H           -1.62794717859503        4.14938633308800        0.00004417201515
N           -2.69303504026802        2.04882314035013        0.00010197068606
C           -3.44664925908491        0.95818394447118       -0.00000213976459
H           -4.50376000793643        1.22098184091433        0.00015866575348
C            0.92142871315941        0.80770889502565       -0.00027507364422
C            0.65942473422961       -0.65544243011827       -0.00054522231093
C            1.45752890177589       -1.75050712495632       -0.00076366265374
C            0.84151553473628       -3.02534021401486       -0.00094468831721
N            0.36779861150643       -4.07031655073284       -0.00159594136630
C            2.90640326972397       -1.71275698508606       -0.00083850435858
N            3.52819787722993       -2.92155514158386       -0.00032648636837
H            2.99537801280559       -3.77350960423491       -0.00236507386394
H            4.53026729088397       -2.97566337825772       -0.00224114514133
C            3.69482147663558       -0.57291163298683       -0.00079308380424
C            3.39433784733466        0.79342036563428       -0.00045848908495
C            2.17158658215248        1.45110356872715       -0.00017194648806
C            2.19577316100744        2.85814166059337        0.00115238935352
N            2.17833197649445        4.00847471307986       -0.00109067183947
H            4.26150959063880        1.44289800058518       -0.00034477283220
H            4.75863560392669       -0.78474482528007       -0.00090597072573
H           -1.91298017525604       -2.14624725061530       -0.00082789357708
