32
 energy: -53.500819367261 gnorm: 0.000860237330 xtb: 6.6.1 (8d0f1dd)
N            5.34638960795228        0.13799369710887       -0.03501454334950
C            4.19550215996990        0.07415752009035       -0.02752410328414
C            2.79112302978177       -0.01299460221123       -0.01239781775357
C            2.12805569176644        1.27919236370872        0.01888212162787
N            0.85540153508118        1.57814007904146        0.03846456941970
C           -0.10478682101531        0.66331219865232        0.02501395168793
C           -0.11058597988640       -0.85055114059114        0.01023231520514
C            0.91276557314481       -1.72038167675959       -0.02700338593382
C            2.28809838982138       -1.31703406880164       -0.03099111673168
N            3.18586444533478       -2.35089457862335       -0.00405558498996
H            4.16322965908427       -2.15589656326654       -0.14434058131922
H            2.86513392667226       -3.27556492890263       -0.22987765238681
H            0.73762293791994       -2.79109296741875       -0.05957270978324
C           -1.54985355582238       -0.80235130527886        0.01013690377832
C           -1.48460368078517        0.67790642126616        0.01529728678684
C           -2.49621899025008        1.66921036216148       -0.01051235456175
N           -2.05765485879596        2.95161577676307        0.02529932855116
H           -1.06610716261911        3.10280438394990       -0.05593046991579
H           -2.69178709554388        3.71575135203754       -0.12526498919182
C           -3.84188900295155        1.36133258556273       -0.04325177930694
C           -4.45215228456557        0.08711713171290       -0.03967311599754
C           -3.96799005617312       -1.18810829482676       -0.01107914918003
C           -2.61067348353023       -1.65773158549021        0.01335562456634
N           -2.42509632737108       -3.02018216355427       -0.02347221933395
H           -1.51613546783667       -3.36272788492802        0.23555806667712
H           -3.20382761093927       -3.59816782715399        0.24631834370368
H           -4.70750301671164       -1.98046071878212       -0.01427292793261
H           -5.53605648342167        0.14416790071690       -0.06130176767404
H           -4.52404301774207        2.20235142150926       -0.07033713321688
N            2.95625769356349        2.37712334657095       -0.03937992223683
H            3.92191064977325        2.27841716579165        0.22365840804428
H            2.51280246299548        3.25641107094452        0.16545642743176
