30
 energy: -54.874209907418 gnorm: 0.000839143074 xtb: 6.6.1 (8d0f1dd)
N            5.63862497513455        1.86557268394059        0.06794957172350
C            4.68048075738833        1.22943290325414        0.04916852436312
C            3.50193570463203        0.46056662873139        0.02765153532131
C            2.26717090232533        1.21224961298954        0.03243824105740
C            1.06581748593585        0.62813774415004        0.01911309056058
C           -0.33929001495046        1.06278035930494        0.01849546056631
N           -0.91777277129942        2.19453578797756        0.01212359257631
C           -2.30352333378012        2.27043313350975       -0.01508211958241
N           -2.71094854583274        3.55081010567265       -0.07392603948054
H           -3.69141548201787        3.76488118477839       -0.09025009839491
H           -2.01704500417601        4.27656355608040       -0.07948464772102
N           -3.23321342367588        1.36798812531301        0.00617929702005
C           -3.19330840751217        0.01821624562191        0.04338619832270
N           -4.44153556487607       -0.51192590370884        0.12555046078285
H           -4.58442087401695       -1.50343817223628        0.04792263009957
H           -5.22091689992701        0.11526901264154        0.04340577592131
C           -2.09012542535765       -0.84732176802963        0.01898790123459
C           -2.33128732716884       -2.22239192349607        0.01704653466245
N           -2.52175057003219       -3.36134360020477        0.00510359062437
C           -0.75736658625111       -0.35585882240870        0.00396410747800
C            0.57353823156771       -0.76175171212924       -0.00258007594583
C            1.34140191459194       -1.96929091843503       -0.02637701051057
N            0.68307811783162       -3.14662075110713       -0.05882638422412
H            1.20011697770388       -4.00821461307432       -0.06418073629465
H           -0.32249927395641       -3.19265609585571       -0.04497918566774
C            2.72616044301189       -1.96828113295903       -0.02219157998796
C            3.65220957836937       -0.90664353792909        0.00332213127868
H            4.68556355568191       -1.23930560785651        0.00333260296345
H            3.17867435794907       -2.95310992436674       -0.04075157716998
H            2.34196800700750        2.29067638443129        0.04975423102316
