30
 energy: -54.072698621840 gnorm: 0.000707258179 xtb: 6.6.1 (8d0f1dd)
N            1.73866929441117        3.82246723203279       -0.04527270685564
C            1.69870691653108        2.67359360127918       -0.02921564646147
C            1.70820052735752        1.26631712214538       -0.01289014417008
C            0.56275798465391        0.54702875404734       -0.00878034797856
C            0.35301782318235       -0.93996050761436        0.01066733054964
N            1.19027863778261       -1.97824757738500        0.01632505411243
C            2.48731932821264       -1.79762578629117        0.00076703550400
N            3.24013001761356       -2.93582315802022       -0.06652124977484
H            2.77925253223370       -3.80595135881529        0.13156939540302
H            4.21961214067223       -2.84845057212298        0.13690258381870
N            3.27141702676521       -0.68854744162658        0.00900098865358
C            3.00872463917318        0.57901711939367        0.00477736156112
N            4.09114281366543        1.39281418485105        0.03806750658448
H            5.00277264091452        0.97244119317364        0.01417983086266
H            3.99286095234805        2.39151915831335       -0.01230420968591
C           -1.01434101237448       -0.75626952635080        0.01810369216514
C           -0.87373532608429        0.71783245241285       -0.00817175392447
C           -1.79516870099027        1.70285016525165       -0.04970190296176
N           -3.13635444681082        1.54656326974765       -0.01771509548188
C           -3.80674591893182        0.41824720056639        0.00080113389572
N           -5.15230511003596        0.63198518199957        0.02534944877666
H           -5.79934185444705       -0.11388670760223        0.20515767391774
H           -5.45476601161671        1.58399905718321        0.13723477421380
C           -3.44434224650904       -0.97479372629323       -0.04131080417706
C           -2.19572787624768       -1.54582239295091       -0.01550992456932
N           -2.01300920054164       -2.88943859199394        0.00582899690951
H           -2.77910795791130       -3.51392781223681       -0.17312845980592
H           -1.06980822027590       -3.22635982741666       -0.08805856392139
H           -4.28651757478758       -1.65658649800335       -0.07281561861523
H           -1.48599639024948        2.74193191252576       -0.09410137014500
