30
 energy: -54.864904130465 gnorm: 0.000722046448 xtb: 6.6.1 (8d0f1dd)
N           -5.13814490027939       -0.87241386188757       -0.04063040356339
C           -4.00370333652537       -0.67531350954413       -0.01461939628953
C           -2.61621708906366       -0.43120385311676        0.00498679894295
C           -1.80669244220283       -1.65501253821141        0.01438641823567
N           -0.51473837316835       -1.81630134450761        0.00118800907719
C            0.34541324596120       -0.79519307372221        0.00054857249448
C            0.17813259306006        0.67775268654274        0.00846802529250
C           -0.91999573716617        1.46255331379537        0.01069008914778
C           -0.77228499851163        2.86757465929978        0.01250679040085
N           -0.66146403316914        4.01032525255933        0.01395141453585
C           -2.27396088543300        0.91594728315462        0.00629286774312
N           -3.25816526225882        1.84483900974418       -0.00080825691954
H           -4.22429200554572        1.56442999371410       -0.00098981923558
H           -3.03182774330763        2.82465587072684        0.00189557793462
C            1.63792564083828        0.81053304325430        0.00156110203284
C            1.72426726465133       -0.65695700514342       -0.01019160647160
C            2.89304139394334       -1.49461372418384       -0.00515233595255
N            2.65513406181063       -2.82091697126009        0.00502251795327
H            1.70533483949403       -3.14899660419755        0.02725814781615
H            3.43021281207179       -3.45955371595250        0.03015559716479
N            4.13131082558035       -1.09567368894740       -0.00865931735223
C            4.57552864784193        0.19067055469061       -0.01932222130031
C            3.98559281072432        1.41774456008018       -0.00735297924679
C            2.58957150159243        1.75578929244896        0.00675653533914
H            2.32156449691531        2.80325823442748        0.01766505121883
H            4.66010135469623        2.26340383897761       -0.01184711256840
H            5.66296557344120        0.19461585261550       -0.03505968153123
N           -2.51594541537054       -2.81515849868196        0.07321992878707
H           -3.51004802515431       -2.82864943378845       -0.07044878276246
H           -1.99610487976590       -3.66971500328678       -0.01824024132347
