37
 energy: -65.711809089385 gnorm: 0.000632219459 xtb: 6.6.1 (8d0f1dd)
N            6.07911554446506        0.07034175383990       -0.13878399850168
C            4.93338092847342       -0.01774777517129       -0.06270117195654
C            3.52884063290532       -0.14178611106036       -0.00334681269607
C            3.07300971427454       -1.47819432568920       -0.07145273498486
C            1.73904966594942       -1.93062923337440       -0.04536765245094
C            0.63069241051080       -1.14733012219271        0.02133825033533
C            0.46129094341015        0.35059471017371        0.02831261966873
C            1.44714282348987        1.33153623514287        0.07974514725395
C            1.05881721876039        2.68052700228148        0.11947623292220
N            0.75625403110601        3.79318936267376        0.13896766399099
C            2.84692016163693        1.10066149081466        0.10114467905210
N            3.63744663586423        2.20783432643354        0.25314121934032
H            4.63290160246050        2.13018978313333        0.13864736205965
H            3.22520836094010        3.12211832786826        0.18568214998520
C           -0.93250108464723        0.18827247089365        0.00502588522738
C           -0.77727042999602       -1.29189630409240        0.02647340587895
C           -1.69110749384326       -2.32465519705225        0.08082721742421
N           -1.24353295129944       -3.62203550432181        0.10162022586470
H           -0.29357519436543       -3.77397446412284        0.39149450695945
H           -1.90211443258323       -4.33409921772498        0.37039667982939
C           -3.08213387863450       -2.12376343305042        0.06734198471497
C           -3.82442353496909       -0.95460787056645        0.00001905544518
N           -5.17688303163611       -1.12128141572678        0.02563505406895
H           -5.56949061196520       -2.04348869982877       -0.01540605242067
H           -5.78801937981451       -0.33133543005865       -0.08569416135934
C           -3.39740072478922        0.41438966194192       -0.06439447735924
C           -4.43542925637532        1.35257608220961       -0.14358974867339
N           -5.28804572206099        2.12849651517179       -0.21277297601376
C           -2.09358008434606        0.97177835194037       -0.05384502469458
N           -1.99689748473583        2.31470644530451       -0.12449188245049
H           -1.10763683360494        2.78133300098316       -0.08174394142742
H           -2.83315455867010        2.87425419821625       -0.14355846742051
H           -3.67268598675590       -3.03220799662558        0.11556034090333
H            1.61637799655934       -3.00647310095359       -0.10205566502072
N            4.02713252928037       -2.46318364297039       -0.11261967936836
H            3.74607412774447       -3.38991911598051       -0.37986494826355
H            4.98625436256201       -2.21195702116017       -0.28345739076352
