28
 energy: -51.426312238782 gnorm: 0.000598247838 xtb: 6.6.1 (8d0f1dd)
N           -5.38251400483768       -1.54696870886654        0.00303702177155
C           -4.44621406078898       -0.88130741024238        0.00155607769386
C           -3.31123931639111       -0.04254860681281        0.00265114492026
C           -2.08885092403610       -0.65190113603834        0.00206430098084
C           -0.86918763258323        0.04913655930065        0.00221430829083
C           -0.61941211033366        1.50108383770157        0.00289600464870
C           -1.40891314509320        2.57487349407777        0.00366220305665
C           -2.85956106763552        2.47949826134966        0.00405000892016
C           -3.63934265646615        1.38567555483800        0.00357102832684
H           -4.71044950149995        1.55666662717781        0.00390529759843
H           -3.36750136109317        3.43559299745806        0.00474574338357
H           -0.97914900309648        3.56580956703364        0.00404251314419
C            0.82859588809230        1.17978290777641        0.00223398259550
N            1.89768997034917        1.87387440651073        0.00179175307468
C            3.13195578724718        1.23418846178257        0.00040484584964
N            4.13160732351509        2.13190456643993       -0.00120390182379
H            3.90310585179753        3.10977558133565       -0.00083696241661
H            5.08546108299665        1.81866494783151       -0.00200032440654
N            3.48060481145484       -0.01396453821165        0.00025824314098
C            2.76831910822045       -1.16598839818526        0.00125404969718
N            3.57572746886657       -2.25156348424248        0.00321483414838
H            3.19064652518379       -3.17967867429762       -0.00063630106351
H            4.56901868909088       -2.10911531433650       -0.00121418503224
C            1.37953069400434       -1.35019449931817        0.00125318528227
C            0.86357661334022       -2.65299230278184        0.00082878688189
N            0.46192970258886       -3.73202469777490       -0.00037673815950
C            0.49649558456300       -0.24291161322480        0.00171910241244
H           -2.04594450835565       -1.73474004488061        0.00133168748333
