32
 energy: -58.316666412324 gnorm: 0.000908402224 xtb: 6.6.1 (8d0f1dd)
N           -0.27538773766759       -4.43870836856339       -0.09649376356842
C           -0.72163871131100       -3.37782953810829       -0.07514316117412
C           -1.26464675515606       -2.08125601820313       -0.04713176785810
C           -0.42530815368828       -0.97686912425306        0.00469053525569
C           -0.80350245398191        0.49767132539107       -0.00354519976492
C            0.56205044365025        0.82846792703784       -0.00049231672703
C            0.92250974246405       -0.61600777367193        0.02114798877252
C            2.19388019836855       -1.23167466229038        0.06728653546715
N            2.29401125427598       -2.57109362662436        0.14076706265831
H            3.21785811257683       -2.96641788859589        0.15570198698230
H            1.49135600621485       -3.17755565644209        0.10937439222872
N            3.35942450154860       -0.60662291743112        0.05220206679754
C            3.60588068807229        0.70801709852079        0.01069098517603
N            4.94745511220400        0.93812241040207        0.01938333376672
H            5.55122695785384        0.13828217597160       -0.04165186236072
H            5.32353685941845        1.85623690258464       -0.12842409323100
C            2.78865487063324        1.84229742322486       -0.01096997401049
C            1.39146843834713        1.95549878682853       -0.01518713316103
N            0.86290378616397        3.19893918923494       -0.05967100910436
H           -0.13003052149518        3.35040040963427       -0.02190968988840
H            1.46921188849551        3.99836823256569       -0.02422165639024
H            3.32526112950989        2.78381545541937       -0.03122115942952
C           -2.05540901160873        1.07711390060011        0.01474606661485
C           -2.17967055519213        2.47426415156566        0.02789759885901
N           -2.29901085255682        3.62117306099351        0.02956299175477
C           -3.28193912797578        0.32714225359244        0.02756919377813
N           -3.48856784146729       -0.97292898439094       -0.04815896801089
C           -2.67021925749747       -1.99776656318436       -0.09149838349049
H           -3.19775217133596       -2.94509902460932       -0.16694799877912
N           -4.44153619751617        1.03877209952650        0.15216345416255
H           -4.44913847626515        2.03742616796693        0.04494675449140
H           -5.29798128498293        0.52479707001013        0.04604122068348
