30
 energy: -54.870710435871 gnorm: 0.000689543675 xtb: 6.6.1 (8d0f1dd)
N           -2.87421283236950       -3.80142793245198       -0.00326854487065
C           -2.75777296466002       -2.65908012223616        0.00308327173676
C           -2.59805215293509       -1.25754359842735        0.00565629579403
C           -1.33080290972303       -0.70800782335064        0.01035699531077
C           -0.95450881627626        0.76622233013339        0.00557525194862
N           -1.63384614980892        1.87050202793453        0.00403483270604
C           -2.98409976908527        1.84936837397415        0.01277953774065
N           -3.54284948901881        3.08594081772815        0.06095234861010
H           -4.53821727648985        3.16010950642171       -0.04516241004965
H           -2.95696465828127        3.89118296186578       -0.06229370594157
N           -3.87853073738899        0.86678533488005        0.00062221037976
C           -3.75046075385035       -0.43837194917092       -0.00210096951836
H           -4.70743292014710       -0.95440827081631       -0.01546033350359
C            0.40561242269323        0.40194662969242       -0.00085050435838
C            0.03274624125732       -1.03525588405159        0.00415703446509
C            0.83287308205466       -2.15965402331681        0.00107833881765
C            2.20993870277691       -2.13130995287687       -0.00566040213744
C            3.11332762199648       -1.03563289712231       -0.00736232576543
N            4.41942512308506       -1.39632494852907       -0.01330612064462
H            5.14337244041015       -0.69745733708523       -0.01283460684803
H            4.68001904053362       -2.36591019086104       -0.01430910371445
C            2.87213601993652        0.36149889535126       -0.00296053932860
C            4.00303831553037        1.18915308568220       -0.00054968693655
N            4.91988792635709        1.89003346970729        0.00296188161958
C            1.62023885578830        1.05919484284195       -0.00090375718977
N            1.61724934702244        2.40578283004873       -0.00190222075429
H            2.47457379060508        2.93129170687021        0.01241967302437
H            0.72771985288452        2.87530112071012        0.01215916504289
H            2.70229971480672       -3.09614358930152       -0.00912559392324
H            0.34699793719586       -3.12705016864400        0.00387399318828
