26
 energy: -43.170057342333 gnorm: 0.000634608015 xtb: 6.6.1 (8d0f1dd)
N            5.61935027441834        0.05338327807403        0.00170814192560
C            4.47247726878233        0.02350770125231        0.00255729507054
C            3.05416274762418       -0.00445063802004        0.00197822843714
C            2.51544929067027       -1.29558297011929       -0.02965237945718
N            1.24323256058185       -1.70672132078196       -0.02635742063819
C            0.25553418574641       -0.88341740397790       -0.01268642209528
C            0.11322300533744        0.63946638965863       -0.00189168277257
C            1.10438497694982        1.59050468905197        0.03180121178354
C            2.45730808505324        1.27318786754925        0.03496151759974
H            3.15378516297448        2.10258548875332        0.06417551871499
H            0.84965859272752        2.64519627909898        0.06303871220139
C           -1.28016151168723        0.48374225433218       -0.00116883141962
C           -1.16455636827755       -0.99322003067987       -0.00452631908384
C           -2.09840968906342       -1.99157828561693        0.00357174850136
C           -3.47731246387593       -1.77188960097657        0.01661905469759
C           -4.15488884761618       -0.55742551222245        0.01616894119927
C           -3.72716161895615        0.76277090540672        0.00077114191431
C           -2.42290371277444        1.29218216807767       -0.00991752377738
N           -2.27398358593888        2.63528294899483       -0.02028505092249
H           -3.07505759473598        3.23974486973472       -0.06137916363232
H           -1.35618534712026        3.03723906959011       -0.06940619726641
H           -4.51483737781687        1.50756462410788       -0.00223359642147
H           -5.23516669091794       -0.65803452947443        0.02635581388962
H           -4.10131614063584       -2.65543262254224        0.02720658948482
H           -1.74273113514072       -3.01343750329587        0.00070370677150
H            3.22530932789145       -2.11512137437493       -0.05465213450463
