26
 energy: -47.959131989698 gnorm: 0.000687732520 xtb: 6.6.1 (8d0f1dd)
N           -4.88898180918846       -2.02415227702145        0.47056869894192
C           -4.03769859936241       -1.27241694282604        0.29468410984302
C           -3.00797674687704       -0.33289815886978        0.10119702979333
C           -1.70033504637120       -0.78556015826699        0.09024680433568
C           -0.60691393183800        0.05540452741181       -0.08083044841170
C           -0.56573680878666        1.55169607270805       -0.07881747135982
C           -1.56806593982465        2.44322097324718        0.04657927819435
N           -2.86654403048622        2.14407524074829       -0.21469155423574
C           -3.44762363558894        1.00714925036574       -0.24781033984608
H           -4.47585686681520        1.05208996898852       -0.60343150695177
H           -1.38403350393552        3.48999841417269        0.25049995707358
C            0.87773104728214        1.48033847970350       -0.02250138067719
N            1.83304036914544        2.32879803366188        0.01201117464033
C            3.12615709461108        1.93223150778255        0.09863819469937
C            3.70605384795588        0.69509270945428        0.07307805026607
C            3.17298298788411       -0.62953068291021       -0.01844746333251
N            4.08427793660686       -1.63481038379862       -0.05773115987950
H            3.77998960641508       -2.59165518211067       -0.11021919160294
H            5.06758759463120       -1.43903161035164       -0.02421495828619
C            1.80993715424903       -0.96780882073339       -0.05883322482756
C            1.45127160706993       -2.32748814222121       -0.15533623350797
N            1.16834484071291       -3.43880634718832       -0.22733997472830
C            0.78492265897124       -0.01471697818510       -0.02223905238456
H            4.78967288244299        0.70744721850786        0.12569466117062
H            3.79574431817223        2.78072213382664        0.18405180750593
H           -1.52100266297614       -1.84682564169464        0.22062155926562
