26
 energy: -47.964874779444 gnorm: 0.000908008393 xtb: 6.6.1 (8d0f1dd)
N            4.88404890729755        2.10019341096667        0.08197194565963
C            4.07373144363178        1.28763839077369        0.03862212001880
C            3.07562080216611        0.29350492190797       -0.02300863924385
C            1.71079182010228        0.77566150250621       -0.13263605938088
C            0.66725166292988       -0.05084779482973        0.00647981848973
C            0.56627942374573       -1.53644411194559        0.07175747064800
C            1.60745735461837       -2.44634370639402       -0.15997636125598
N            2.87336972940823       -2.18310977811335       -0.10673250958426
C            3.49053640577446       -1.01199124343131        0.12348820292554
H            4.53996751514379       -1.15923223405413        0.36805629569186
H            1.35945755734111       -3.46449545342694       -0.44825945556819
C           -0.83001759850150       -1.47674028744079        0.04689280041314
C           -0.79274562274672       -0.00160010798035        0.00062829226035
C           -1.77105568349364        0.93095952283573        0.00640253050212
C           -1.44489124210838        2.30342580292912       -0.00124541383664
N           -1.21699208714254        3.42874670316806       -0.00876186122185
C           -3.19828124074130        0.56187824563449        0.00901576841548
N           -4.06479549509160        1.59828874486771       -0.01430739287041
H           -5.04759174985814        1.38819289332128       -0.01947563259289
H           -3.75218877412206        2.55341897799827       -0.02703514590631
N           -3.74787084777386       -0.61402084092243        0.02418438102216
C           -3.23843913713259       -1.85452445047346        0.06063304907146
C           -1.94581261171377       -2.31692011602029        0.08788287640035
H           -1.78274277606480       -3.38451557067621        0.13943158899567
H           -4.03081780998345       -2.59672288164857        0.07460936484066
H            1.56845033101583        1.84339709425376       -0.23606917329168
