33
 energy: -63.632381426805 gnorm: 0.000491056887 xtb: 6.6.1 (8d0f1dd)
N            6.10863279967240        0.06663675768207       -0.00189321641651
C            4.96242723785241        0.00540117297730       -0.00112382580804
C            3.54557180614854       -0.07642922650412       -0.00064555332632
C            3.08715355841180       -1.38451968408903       -0.00102101408480
C            1.76430003449715       -1.87232409049934       -0.00055494315788
C            1.59216321146667       -3.27832762918569       -0.00058004584961
N            1.45650748195964       -4.41656737125424       -0.00119491931229
C            0.65049095460838       -1.07398622339661       -0.00016556402342
C            0.49381681459336        0.42088065649833       -0.00009331044192
C            1.47805403589134        1.40628498018708        0.00054228007152
C            1.06094850522142        2.75041674585777        0.00161148414174
N            0.71171114343504        3.84748682328044        0.00239213091131
C            2.87742287981166        1.18802216193042        0.00035477445393
N            3.67439067500847        2.29030613777295        0.00113159278279
H            4.67499539303817        2.19643528467071        0.00086192978198
H            3.27141551252503        3.21081358431761        0.00166515418445
C           -0.90248532362915        0.27161939793759        0.00000833744938
C           -0.75908469632791       -1.21005712927953        0.00012266880539
C           -1.67304614219396       -2.23047697474019       -0.00054613366180
N           -2.98872128158308       -2.12067292266707        0.00085143772075
C           -3.70794384948448       -0.99904961204835        0.00186865300540
N           -5.02730965279194       -1.27651370629664        0.00579211427534
H           -5.29030387708366       -2.24722504251751        0.00718293475429
H           -5.72777913716332       -0.55457637897219        0.00629517865349
C           -3.36070049839270        0.39320975848633       -0.00119519362915
C           -4.45786483256456        1.26915780331946       -0.00277890083569
N           -5.35585019587923        1.99236543639034       -0.00452802024636
C           -2.08600483791326        1.02465236197869       -0.00166796756806
N           -2.05412655553607        2.36718139985053       -0.00390716309866
H           -2.91751337469914        2.88607254532897       -0.00491273351352
H           -1.18666903368297        2.87762942850557       -0.00314153573628
H           -1.31650879976072       -3.25579936340508       -0.00194116784966
H            3.86142960694405       -2.14343051581603       -0.00168082183232
