23
 energy: -39.191914211598 gnorm: 0.000649204618 xtb: 6.6.1 (8d0f1dd)
N           -3.80846113370238       -1.63613370009200        0.03921192835445
C           -2.84316222492314       -0.68339734693708       -0.00389760329245
N           -1.58782094338303       -1.25097128113519       -0.01298471823852
C           -0.55252656691139       -0.50618513177710        0.03449170321463
C           -0.29744598663462        0.97779291062175       -0.02034181765610
N           -1.12378591099982        2.01855228667272       -0.08687456590547
C           -2.41478100675721        1.83475812632880       -0.05263889517148
C           -3.19942828168561        0.65608336873102       -0.01465732328885
H           -4.26936088945487        0.83310979038109       -0.02085325315049
H           -2.98010109151199        2.76099042737856       -0.08031973884498
C            1.06939082836241        0.75185067100878       -0.09035380907847
C            0.88500762953205       -0.72228912962362        0.00863095568463
C            1.76746577254959       -1.72541959206154        0.15766465278568
C            3.18292150017021       -1.52306315099957        0.01088704452000
C            3.83596172648310       -0.34165424299146       -0.15802651799710
N            3.46562007394709        0.94569034263295        0.07421909726068
C            2.28329209230006        1.44767057711044        0.11144101877990
H            2.22607552792858        2.49748357774961        0.38487904720474
H            4.89043129282294       -0.39287974778867       -0.41607000900697
H            3.77895404164533       -2.42392855985852       -0.05418144115927
H            1.41391027461177       -2.73816359747794        0.29451950527314
H           -3.51927417126168       -2.59403285520681       -0.04540140271145
H           -4.77860320052745       -1.39759687426601       -0.05479146727631
