33
 energy: -58.034624296935 gnorm: 0.000723276233 xtb: 6.6.1 (8d0f1dd)
N           -3.42108550321371       -3.54183461074997       -0.06186480852188
C           -2.79628899668282       -2.57196528589291       -0.02905846560654
C           -2.00833175380524       -1.41160074529570       -0.00363108967611
C           -0.59793700758429       -1.66418167756693       -0.01749185540285
C            0.33601971450165       -0.65297456178237       -0.01413021041445
C            0.17106064165727        0.80901255947521       -0.02239044892670
C           -0.93467782134824        1.64818127494912       -0.00555868630407
N           -0.70239808949628        2.97553304938051       -0.01449954973699
H           -1.45692749895097        3.63961621230573       -0.00672361204655
H            0.25620009615912        3.28204494448657       -0.03758414697979
C           -2.26628760257352        1.15583383681986        0.02501866927933
C           -3.25635839742143        2.14921224308318        0.05040486484753
N           -4.04811975770965        2.98801283453293        0.07084696665027
C           -2.72873173848773       -0.19103883776944        0.02824023326885
N           -4.07909745777023       -0.32160167295548        0.06110775819047
H           -4.66583447296677        0.49478505094851        0.07088371217489
H           -4.50246734336372       -1.23346821666570        0.05643330972948
C            1.56216454683774        0.99397570838712       -0.03970981631124
N            2.36266778770186        2.02396487258869       -0.05955846437288
C            3.68097332845707        1.87095905967811       -0.06297918130085
C            4.48588896284387        0.73513667699388       -0.02539072674442
C            4.18956812275018       -0.63211104657171        0.01494492103491
N            5.25843418622210       -1.49887730376266       -0.00556379704145
H            6.17027590960123       -1.12749159629164        0.20103720615057
H            5.10130773044498       -2.45256822357550        0.27274180017934
C            2.90318497417550       -1.22945709792583        0.01644006115244
C            1.75453353368199       -0.50934712709267       -0.02156945573348
H            2.87728419558985       -2.31397130443487        0.05520445215572
H            5.54924467289030        0.95289500208605       -0.02511397446574
H            4.20752628576121        2.81977612678055       -0.08848193718998
N           -0.18708190980710       -2.96115753162649        0.00249445095094
H           -0.85873807291611       -3.69870250726133       -0.12719784081640
H            0.78181622282233       -3.15831869657513       -0.16673195427241
