30
 energy: -54.077192560159 gnorm: 0.000773695202 xtb: 6.6.1 (8d0f1dd)
N           -1.85449055474381       -3.82173372051350        0.01873364375384
C           -1.80365921148826       -2.67283919531572        0.00348536146727
C           -1.77566172194014       -1.26662428631123       -0.00364880078554
C           -0.59174831008304       -0.58958907817040        0.00263878443339
C           -0.33884405300783        0.91107031944141       -0.00667694625776
N           -1.13546580232222        1.96077255301451       -0.00338368319452
C           -2.45172319169442        1.81293189919799        0.01771405159626
N           -3.15176042050203        2.98393838982552        0.10361373748073
H           -4.13664614513735        2.94316214585310       -0.08867599895303
H           -2.65429166399827        3.83432834198653       -0.09150639081349
N           -3.25774165884142        0.74085280843083        0.00181701546260
C           -3.03575027022678       -0.54550023889137       -0.01478339847290
N           -4.16037999637930       -1.30841093287224       -0.08299485977252
H           -4.10886140207454       -2.30465596287492        0.03978939744599
H           -5.04536533248282       -0.84243764673790        0.00915801717707
C            1.02600274731058        0.67685378372384       -0.01593162664504
C            0.81334579635242       -0.79714938516404       -0.00035654946551
C            1.72775100904339       -1.80631353477232        0.01671815015944
C            3.10965318933909       -1.58098238766269        0.01340406066338
C            3.81297029516182       -0.36947076051471       -0.00249685184165
N            5.16957909895342       -0.46738531019504       -0.00210995801697
H            5.63174170745986       -1.35361000523382       -0.08774095639685
H            5.69743243987265        0.38413349457197       -0.06981185759591
N            3.45136639218695        0.93353336066125        0.00443201737918
C            2.22593868790896        1.41953111166314        0.00259305349143
N            2.10994780990871        2.76099349221346        0.01142008080429
H            1.18969663997183        3.16437924946525        0.04319979146705
H            2.93407927777763        3.33228890953722        0.06610749496362
H            3.73616976954858       -2.46363869381471        0.01972048845144
H            1.38298392002646       -2.83240351184137        0.03122215391475
