26
 energy: -47.180679883415 gnorm: 0.000529557702 xtb: 6.6.1 (8d0f1dd)
N            4.89651115621881        1.82412680884263        0.00039122561298
C            3.91624328043138        1.21757434283869       -0.00207904894138
C            2.73386603886171        0.46410554229596       -0.00055548385828
C            1.54819602711203        1.17523567765322       -0.00062186103314
C            0.29645529435543        0.58549001509119       -0.00050580898922
C           -0.04967642595521       -0.86100417744909       -0.00060944620348
C            0.72472289515648       -1.96502768078599       -0.00075942587649
N            2.07635737590914       -2.00365377539064       -0.00016578370453
C            2.91387838093195       -1.00404072430291        0.00010329967535
N            4.20413741397046       -1.39376782387460        0.00109897039978
H            4.39045735633997       -2.38219632280498        0.00154439378464
H            4.96054765930722       -0.73027671680207        0.00122863882556
H            0.27240148385096       -2.95042723375121       -0.00127990052976
C           -1.44779498897059       -0.49518206307557       -0.00097162716989
N           -2.56146336196458       -1.12407849573381       -0.00126489719868
C           -3.75136194814317       -0.43713494324079       -0.00161980892964
N           -4.81118784871632       -1.27219695301926       -0.00233153980336
H           -4.65183033686692       -2.26301474855048       -0.00186593402375
H           -5.73877631345986       -0.88936726551115       -0.00210385587746
N           -4.04841515737521        0.84078289665294       -0.00143793591234
C           -3.27042993481202        1.92221596537292       -0.00107704130432
C           -1.89169542849048        2.05697716133008       -0.00084490733753
C           -1.05598644914311        0.95130487889740       -0.00083966787125
H           -1.46823828394400        3.05289541132130       -0.00059913134202
H           -3.85907737519882        2.83547197947354       -0.00097394348393
H            1.61561469749471        2.25733876542269       -0.00099703310784
