29
 energy: -51.940001890565 gnorm: 0.000689500491 xtb: 6.6.1 (8d0f1dd)
N           -5.64987690815220       -2.30974725271149        0.00259866268861
C           -4.79674530595543       -1.54103665099665        0.00146546730213
C           -3.72996731823906       -0.61484664108500        0.00067410275636
C           -2.40913778695568       -1.22264619778341        0.00118266473180
C           -1.28919442558373       -0.49927065231576        0.00063441127347
C           -1.02115312168029        0.95938860245387       -0.00053520521647
C           -1.92169409094120        2.03581042267229       -0.00178609674000
C           -3.27951370062798        1.90010881794000       -0.00175877825149
C           -4.06850488985316        0.71188136728210       -0.00060860018493
H           -5.13732976379359        0.90141435044639       -0.00093036116097
H           -3.85873154590309        2.81385612857607       -0.00288296794307
H           -1.49808192359237        3.03219768232025       -0.00259570796802
C            0.35122788429321        0.73980527494534       -0.00006320036698
C            0.16715676661735       -0.71751787506493        0.00098540540287
C            1.00548222872518       -1.76194685861873        0.00181441926739
C            2.44453783327337       -1.65518155471208        0.00183712249402
N            3.10434616541017       -2.83632540702375        0.00251106411567
H            4.11049757691562       -2.85888430648812        0.00256733387240
H            2.59923609805456       -3.70387260759375        0.00301068001625
C            3.18997400001448       -0.47296704711754        0.00116731392921
C            4.59311487731701       -0.64759275715478       -0.00000261929831
N            5.73168312547512       -0.80333579153008        0.00355428139425
C            2.80852062636127        0.90418801350578        0.00032453406941
C            1.56334012486134        1.47656166826778       -0.00019569770183
C            1.46614961921243        2.88618317932255       -0.00029852452583
N            1.36419087648381        4.02916355255975       -0.00267820688377
H            3.65092536905323        1.58703553006526        0.00003063111549
H            0.60313261407994       -2.76734695929365        0.00243533156824
H           -2.37634774617033       -2.30443205966783        0.00207380584405
