24
 energy: -38.927037515895 gnorm: 0.000792814674 xtb: 6.6.1 (8d0f1dd)
N           -1.49465081389086       -2.62113217447621       -0.00157520333942
C           -1.70987799557095       -1.29398441670740       -0.00122874002198
C           -0.59681462556021       -0.44823912746008       -0.00119501311457
C           -0.52034585017275        1.02959930057694       -0.00085293270734
C           -1.51582284886717        1.96189069665889       -0.00047480025293
N           -2.83294746031195        1.73447851399126       -0.00029446091910
C           -3.42932884678930        0.55673504028697       -0.00047269815560
C           -3.01897509489476       -0.77363109386817       -0.00088452701684
H           -3.81502999849297       -1.50856275187305       -0.00093811659333
H           -4.51228216778586        0.67930432548062       -0.00024653138909
H           -1.26168536173199        3.01829231670105       -0.00028407423661
C            0.91246842256311        0.95787550457892       -0.00113437659513
C            0.79417008938510       -0.55501017703996       -0.00148040493928
N            1.65897586044879       -1.54318676867167       -0.00188465462058
C            2.95599251824174       -1.32726419897154       -0.00208180678663
C            3.70581607863087       -0.12560335097915       -0.00193445949396
C            3.32477654466152        1.19540426013502       -0.00153927642322
C            2.01324478494112        1.73965728005427       -0.00115343436954
H            1.91799652504534        2.81868238469441       -0.00087143497738
H            4.12818086721000        1.92209501151247       -0.00151842395383
H            4.77743161747413       -0.29398445191633       -0.00218216122602
H            3.53744967923903       -2.24386222914173       -0.00241628660722
H           -2.25592161324195       -3.27643662587905       -0.00170964105228
H           -0.54343829623005       -2.95051902618648       -0.00186592810808
