27
 energy: -46.895370285269 gnorm: 0.000607467146 xtb: 6.6.1 (8d0f1dd)
N           -1.08865164444996       -4.00875114251497       -0.00676366975023
C           -1.36736958013036       -2.89405639839294       -0.00899413539125
C           -1.68625768438929       -1.52133910657824       -0.01295403864070
C           -0.63135241970885       -0.59071995885833       -0.01010923202904
C           -0.71263819124240        0.90429096639534       -0.01471185746420
N           -1.65023995344112        1.77034175327055       -0.01889242617015
C           -2.97089109213143        1.41290915133548       -0.02282942916430
N           -3.77351368483823        2.51420136679743       -0.06830883857275
H           -4.75979916152953        2.43673479937622        0.10052460386214
H           -3.32660408020672        3.40532245105057        0.05667914185829
C           -3.56198248893695        0.15510688021853       -0.02034527355312
C           -3.01866908469245       -1.13793036207577       -0.01777636230324
H           -3.74391028745748       -1.94274623759631       -0.01767022300644
H           -4.64617980794300        0.18359838424835       -0.02388948659022
C            0.73636196329438        0.95817716320855       -0.00555489162408
C            0.75391793992436       -0.52899050540684       -0.00168392387306
C            1.86595325283181       -1.38215325743550        0.02406922507269
C            3.14968396941835       -0.93576646763946        0.03298107305985
C            3.64197514624814        0.43657834600170        0.00432152225826
N            4.99308418467662        0.52302283147870       -0.01462414765772
H            5.40197381097069        1.44068979850269       -0.05067155616532
H            5.58129077034202       -0.28944414928337       -0.04166576709924
N            3.06222987011888        1.60899151985337        0.00123643413665
C            1.73298852434042        1.86551196591721        0.00725722416230
H            1.50632539541484        2.92613697515277        0.01456861345342
H            3.93546114219739       -1.68006071751271        0.05474234449992
H            1.68242163461983       -2.44954239261299        0.03936219429151
