33
 energy: -58.026714179765 gnorm: 0.000817940909 xtb: 6.6.1 (8d0f1dd)
N           -5.59751229695806       -1.42409335392848       -0.04295967486270
C           -4.48029494551082       -1.15283929267667       -0.01712876656770
C           -3.10397293764952       -0.83329504430741       -0.00154165482831
C           -2.29052263724538       -1.99008094907861       -0.02223201862015
N           -0.98239396830309       -2.14291760665943       -0.02075326710137
C           -0.16686325966537       -1.12212117256285       -0.01570295571987
C           -0.33740005751388        0.40791464561956       -0.01377161958912
C           -1.50575138253400        1.13597420714015        0.01441087981247
C           -1.43202838036388        2.53947468629886        0.02824208101920
N           -1.34297457411403        3.68833717473378        0.03281218123283
C           -2.80905101308651        0.54669216993291        0.02978978351511
N           -3.86482234170082        1.41396499663897        0.11891041935191
H           -4.80036148590609        1.06137743664889        0.01354689458049
H           -3.71097665581154        2.39959458219910       -0.00161126185335
C            1.06446406292127        0.52525669542252       -0.01842021386470
C            1.21013341052032       -0.94783868203705       -0.01561277776791
C            2.31601701588394       -1.81609912304289        0.00175262084956
N            2.02940369786556       -3.13732105140508       -0.02599735682878
H            2.74839154000871       -3.83041528632006        0.07605946763053
H            1.06007793686184       -3.40658243944692        0.01430576823675
C            3.62607397846355       -1.36471382533751        0.02619897145866
C            4.10632890718531       -0.03878728520820        0.02659532686071
N            5.46958589330779        0.06274029543558        0.09880011738921
H            6.03304417544189       -0.75646272067504       -0.04042687183291
H            5.90852473905188        0.95363149267336       -0.04916926160609
C            3.42950658868972        1.18400300149852       -0.00163918473563
C            2.06321731177419        1.50441374608170       -0.02189635403544
N            1.73088568457903        2.81539078737228       -0.06788206864867
H            0.77085884980590        3.11210233893383       -0.03076209395562
H            2.44723185127393        3.51651124416921       -0.00738561618262
H            4.08348959643738        2.05022103466479       -0.00200579187645
H            4.39121207518755       -2.13212463503908        0.04823428929765
H           -2.83295288629661       -2.93020652213878       -0.04077401995797
