29
 energy: -55.150297910926 gnorm: 0.000254127131 xtb: 6.6.1 (8d0f1dd)
N           -5.36086898198856       -1.40344378866187        0.00034021944705
C           -4.24053847590242       -1.14829656367626        0.00054565041752
C           -2.86073594835737       -0.83539755315855        0.00047717586706
C           -2.04889472896615       -1.99142188941438        0.00160241324065
N           -0.74263157497185       -2.15446625722396        0.00200125778781
C            0.07945756379920       -1.13938069023614        0.00141047077731
C           -0.09798363432774        0.38140894075231        0.00022967908162
C           -1.25566186862767        1.12238349901844       -0.00065507410093
C           -1.14291979259102        2.52550303676369       -0.00164653147009
N           -1.00280979378065        3.66776340045020       -0.00218404081225
C           -2.56485760560555        0.54789618738834       -0.00057734415991
N           -3.60915247258532        1.41876107709621       -0.00160068161334
H           -3.44593407795583        2.41004467961894       -0.00227985691283
H           -4.55414118674847        1.07649566900543       -0.00150795325048
C            1.30499980237191        0.51491412325322        0.00052062429577
C            1.45949030043036       -0.96374967683605        0.00163964928591
C            2.61948135838122       -1.75448397162437        0.00332848075252
N            2.48569933738333       -3.08726558659621        0.00512883171536
H            3.31065771897266       -3.66196379014087        0.00638716419332
H            1.56412622124194       -3.49156372640811        0.00507903337479
N            3.86959836781582       -1.28297794077651        0.00317367347039
C            4.22371101706235       -0.00760374541645        0.00162824636826
N            3.64424980511515        1.16373399667521        0.00099088341976
C            2.32357627963912        1.46459547438978        0.00076016532207
N            2.08658855263844        2.78521159619091        0.00058529636773
H            1.15649828993433        3.17117528863810       -0.00003068906850
H            2.88707713033098        3.39456687232170        0.00067447060824
H            5.31107312174176        0.09076420630426        0.00098404603665
H           -2.59547802544996       -2.92944633709699        0.00226883545850
