32
 energy: -54.304667758417 gnorm: 0.000643836910 xtb: 6.6.1 (8d0f1dd)
N           -5.54059284576874       -0.15692677225782       -0.01610562937746
C           -4.39475146037279       -0.06710637050000        0.00974541682992
C           -2.98584116576336        0.05269661552667        0.02357490492246
C           -2.33353773213950       -1.19852495522339        0.06387560621823
C           -0.97888995372700       -1.50891023176443        0.05457738627993
C           -0.67898863621305       -2.88499255168733        0.08741609135582
N           -0.43304523380621       -4.00882838704993        0.11393079767541
C            0.05953295327934       -0.57390935428859        0.02005399983285
C           -0.06082974524063        0.93150126792381        0.00779742890692
C           -1.12590684273861        1.75940922952458       -0.02616194142622
C           -2.49428149239310        1.36623368454227       -0.01877168376069
N           -3.40370802513608        2.39435694942560        0.00489017400204
H           -4.37639975863016        2.17750058652486       -0.13865605467595
H           -3.09938363284237        3.31257705025231       -0.26746203341893
H           -0.96293743512385        2.83135391893512       -0.06931883152593
C            1.36856828255070        1.01497591090822       -0.00285650113207
C            1.44948761899484       -0.46383505716417       -0.00639377531947
C            2.58914725175562       -1.30400289568675       -0.04180474952891
N            2.42525058941313       -2.64346699042914       -0.06418533463801
H            1.51365512620271       -3.06726538162450       -0.02661436280295
H            3.23117200315619       -3.24309640356433       -0.07422776236830
C            3.88852676549015       -0.79966931638629       -0.06405529380561
C            4.35054587491766        0.52019173469784       -0.04815935178655
C            3.71331177174301        1.73386710443909       -0.00824139090210
C            2.31933053168973        2.00825675090491        0.01730685412129
N            1.94393620928536        3.32434020336495        0.01233138949309
H            2.64246738268385        4.01347376243302        0.23400013571524
H            0.99885820449636        3.54598049145812        0.26916301243317
H            4.34932687622755        2.61049307743562        0.00375363908339
H            5.43295233732317        0.59152270824405       -0.06446585460950
H            4.66569545509387       -1.55442826948110       -0.09481717634823
H           -3.00753156220726       -2.04748961103241        0.09499234835743
