26
 energy: -47.963249931774 gnorm: 0.000252524222 xtb: 6.6.1 (8d0f1dd)
N           -5.32255019460011       -0.64290598614814       -0.00011956530918
C           -4.24499390871979       -0.24032560832895        0.00016564660458
C           -2.91013990435999        0.20780953721837        0.00003780562251
C           -2.75190134818726        1.61345215498689       -0.00051798847744
N           -1.73977029633302        2.43817751671176       -0.00067797048274
C           -0.43915138686656        2.10911186681090       -0.00046959992465
C            0.07729212324678        0.85114470693297       -0.00024221957219
C           -0.56039525329748       -0.48679779331189        0.00007760675550
C            0.69350954593854       -1.11835746541179        0.00022933050438
C            1.36752510586971        0.21976368854536       -0.00005004484663
C            2.68883037681170        0.54453621440871       -0.00000464571266
C            3.08165103907698        1.90361767148572       -0.00040300648221
N            3.41544375548516        3.00038483474441       -0.00058955378661
C            3.73406844108714       -0.44723682574372        0.00037658769921
N            3.67976543153444       -1.73958663136820        0.00054889523174
C            2.64726124672390       -2.58444566063244        0.00048731209056
C            1.27544264723983       -2.37228863113810        0.00041285248689
H            0.64338768678749       -3.25268526959549        0.00050135021236
H            2.97966919249259       -3.61817257383118        0.00063112385293
H            4.74647905531105       -0.05216269791678        0.00053091743529
C           -1.91843249727295       -0.81582123761279        0.00030958282549
N           -2.30386040779363       -2.10203173088634        0.00077156343431
H           -3.28320410457688       -2.33863029076175        0.00095138689540
H           -1.61898697318558       -2.83644649519482        0.00105933250872
H            0.22883451175912        2.96445627088979       -0.00043670637588
H           -3.70229720527110        2.14643974514733       -0.00082912208966
