33
 energy: -64.431097030411 gnorm: 0.000729912941 xtb: 6.6.1 (8d0f1dd)
N           -6.58571624355654       -0.11024294681291       -0.00036218432501
C           -5.44019069531589       -0.11404754941190       -0.00055539505619
C           -4.01714047968575       -0.11460629914854       -0.00020535442815
C           -3.44778078523053       -1.38423954457144        0.00029780743584
C           -2.07886618172171       -1.72086349162100        0.00061024288498
C           -1.75102630485938       -3.10108982515711        0.00308171948167
N           -1.48203694901958       -4.21486692111682       -0.00113517754329
C           -1.04992820222634       -0.81398094417477        0.00051642830939
C           -1.02817898363219        0.68786692829536        0.00043866903137
C           -2.10987808345225        1.55817682245065        0.00001670820083
C           -1.87477393236981        2.95183640961825        0.00029512348123
N           -1.66556736915020        4.08123523805692       -0.00077409924427
C           -3.45525918882968        1.17242363611004       -0.00032524471912
H           -4.17263618847061        1.98518931970579       -0.00062673328014
C            0.38261500975278        0.66010416870596        0.00077315691790
C            0.37050119068972       -0.81648753748213        0.00077453538201
C            1.35916241389268       -1.76143774657040        0.00063763979734
C            2.72500024912004       -1.48158045063673        0.00057216536441
C            3.56732541587953       -2.61394985043069       -0.00103413683760
N            4.25872778498801       -3.53209279294772        0.00099675016770
C            3.38427041532285       -0.21121911373132        0.00092717052375
N            4.73161690569609       -0.27046584054837        0.00078888730629
H            5.19783856945024       -1.16326985352656        0.00052179363995
H            5.28585050010832        0.57005368363190        0.00108078274770
C            2.82080836455383        1.09230707212394        0.00137309098570
C            3.77106700705525        2.13468662842750        0.00174491042911
N            4.53836490157310        2.99283670487434        0.00253693656047
C            1.46790264483814        1.54647516359965        0.00120425181722
N            1.25740610384006        2.87101960592170        0.00149978272279
H            2.03769817641228        3.50844255495933        0.00177100117003
H            0.32705322447913        3.25799498744979        0.00127425795167
H            1.07050847389024       -2.80536566148112        0.00031512488799
H           -4.14100438362183       -2.21668201406158        0.00059221693639
