32
 energy: -54.305903342461 gnorm: 0.000645705742 xtb: 6.6.1 (8d0f1dd)
N           -5.75147293007766       -0.09683542459459       -0.00290002884739
C           -4.60668007130570        0.00981436465710        0.01607078206131
C           -3.19998641580931        0.14784280609196        0.02382337338569
C           -2.53157289595080       -1.09967301186545        0.03047743097475
C           -1.17727478870878       -1.39806145702174        0.02004957393570
C           -0.84558583061113       -2.76594349153047        0.03205160319418
N           -0.55296834559780       -3.87936921105777        0.04356050989240
C           -0.14776373596236       -0.44577693167201       -0.00083369309485
C           -0.29774948259854        1.05010719772202       -0.00097073406758
C            1.13644241201034        1.16104818197458       -0.01226559608457
C            1.23876195628228       -0.31187848267404       -0.01438383529445
C            2.41114078422476       -1.11205849327729       -0.03413464798113
N            2.28478427355524       -2.45678659883388       -0.05862564381661
H            3.10240579787929       -3.03984251451482       -0.06716762113415
H            1.38216768378848       -2.90076575998420       -0.04202589530927
C            3.68777220847766       -0.57061321682377       -0.03000277323802
C            4.15124928942368        0.76653580565077       -0.01622449192575
N            5.51531210582149        0.88868051929421       -0.05687010738748
H            5.92782091894594        1.78903295568334        0.11175525309455
H            6.09003853823193        0.08331029895689        0.11665210451477
C            3.44177554955612        1.96789204588435       -0.00931603701678
C            2.05855117623822        2.16028376291135       -0.01180523966661
H            1.70417903835144        3.18359292731763       -0.00618615590573
H            4.04923674734859        2.86418155410219       -0.00331298845729
H            4.48477551895758       -1.30775481823728       -0.04355522723910
C           -1.35916943178493        1.87610762043408        0.00697491082390
C           -2.72705433369815        1.46810506124216        0.01820102982609
N           -3.64316406207898        2.48154259382375        0.06931224501240
H           -4.62072632364497        2.27003421747741       -0.03900216996652
H           -3.34314563156159        3.42303391361902       -0.10844662079707
H           -1.18406619017658        2.94605024172601        0.00619723030721
H           -3.19876697552581       -1.95473063688160        0.04162955850742
