30
 energy: -54.866508123406 gnorm: 0.000534995887 xtb: 6.6.1 (8d0f1dd)
N            6.35784145139330        0.64418230066204       -0.03370373703440
C            5.22166728158422        0.48430272853769       -0.02019227650893
C            3.81848295059504        0.28432728771283       -0.00634592795091
C            3.43937236162545       -1.07576369134572       -0.00779199799197
N            2.23560593843098       -1.63576234138851       -0.00034343358816
C            1.17367315281302       -0.87849084381164        0.01015640367110
C            0.95482866327161        0.65190978461169        0.01333525085218
N            1.75623086843461        1.67631736741802        0.01158184185002
C            3.07359874507564        1.47821817562278        0.00441817547798
H            3.64619119766709        2.39972842899427        0.00444318667096
C           -0.42762173411500        0.41210043252183        0.01241952530562
C           -0.21545293582093       -1.03841211320075        0.01023104915563
C           -1.12185496963002       -2.10729695274430        0.00507308967230
N           -0.60108776394777       -3.35083355852373        0.00887084294697
H            0.40024602123273       -3.44698578437139        0.01141154047683
H           -1.18413273043012       -4.16756002207588        0.00006121449860
C           -2.50410188354310       -1.91547096926990       -0.00414804089359
C           -3.27140656780470       -0.74428368901163       -0.00993384703836
N           -4.61454806410143       -0.94490959054252       -0.02490476543237
H           -4.99135417966207       -1.87463962110809       -0.02556846359499
H           -5.24867453967776       -0.16479242117662       -0.02599922950603
C           -2.88057348045866        0.63189393742732       -0.00351439789209
C           -3.92581875670292        1.56934628798770       -0.01131168713185
N           -4.76603919369209        2.35896324427401       -0.01772576235906
C           -1.58192026736823        1.19701866131051        0.00765746571486
N           -1.41812115886190        2.53250619772938        0.01256551149910
H           -0.47878431034100        2.89442334081030        0.01820124143044
H           -2.20528688218324        3.15832489069981        0.00766598121461
H           -3.08970263332987       -2.82857153509676       -0.00993702072407
H            4.25072710564706       -1.79602751595267       -0.01787925809043
