28
 energy: -51.422786374446 gnorm: 0.000735864554 xtb: 6.6.1 (8d0f1dd)
N           -5.45793211650269       -0.38990092114278        0.00050903471159
C           -4.32171842129725       -0.21796983278319        0.00098052140915
C           -2.92509000804802        0.00879078668101        0.00049881982548
C           -2.17472925804853       -1.19481966807779        0.00038624915959
C           -0.81164648145655       -1.40184993265285        0.00034225483066
C           -0.34729896647882       -2.73143217689771        0.00034649758981
N            0.08717531456440       -3.79602305064565       -0.00021548828139
C            0.15315871085198       -0.37143406788663        0.00034284934843
C           -0.08935789180290        1.09518231718978        0.00034557144306
C            1.35292737363391        1.29891298700244        0.00013462207521
C            1.52803288418316       -0.17065038278080        0.00039631510359
C            2.77905901420179       -0.85976073397104       -0.00115278072830
N            2.81792047554641       -2.19711311790116       -0.00317594092064
H            1.98840594646244       -2.77050050658392       -0.00288639050541
H            3.72648986006820       -2.63099873869441       -0.00427931393749
N            3.96144019595757       -0.26758111836004       -0.00071110687084
C            4.24898887171879        1.03953943037345        0.00086283402069
N            3.59915643656246        2.16393096174164       -0.00014006513795
C            2.24974429521204        2.30539158873533       -0.00116844671886
H            1.92356053618012        3.34026468821501       -0.00247112076366
H            5.32979805343384        1.18894556600877        0.00300573634599
C           -1.19375051670396        1.85576087313140        0.00052450067288
C           -2.53942393830295        1.35708684822924        0.00056242474658
N           -3.50855361485219        2.30335143668202        0.00062184435095
H           -3.26797405844126        3.27781892204003        0.00093081043377
H           -4.47973786798154        2.04077816312623        0.00080384519925
H           -1.08555366482560        2.93364404754130        0.00061291636364
H           -2.78698959603489       -2.09021173961971        0.00040225393427
