32
 energy: -59.115630222130 gnorm: 0.000547694452 xtb: 6.6.1 (8d0f1dd)
N           -3.81199735586606       -3.71280336918692       -0.00093695487737
C           -3.12762185119991       -2.78671854121385       -0.00037734187191
C           -2.29034917148669       -1.65681821925732       -0.00122973558195
C           -0.91111025175379       -1.94173148216086       -0.00247570351145
C            0.07082273614272       -1.00706403007758       -0.00287156514042
C            0.06388764734462        0.47553200257440       -0.00223803429495
C           -1.02112048966241        1.36259287910135       -0.00118929134023
N           -0.79632563770211        2.68755780352414       -0.00087616262380
H            0.13968133418336        3.05978858278001       -0.00127424905220
H           -1.57013169014397        3.33206910497022       -0.00017024445483
C           -2.37375504699650        0.91865358209406       -0.00039086422343
C           -3.31832658951775        1.96027000021050        0.00129594265579
N           -4.08298566347364        2.82346241408293        0.00010947784750
C           -2.93795948760513       -0.39278872413364       -0.00030066018180
N           -4.28923293926614       -0.43815689921104        0.00098378378304
H           -4.76104606662874       -1.32732333121175        0.00098837617183
H           -4.83289516189499        0.40850204179977        0.00157989063962
C            1.46588042445546        0.51616868058896       -0.00318555534554
C            1.49961643544460       -0.99449770622451       -0.00395227152375
N            2.41187322019985       -1.89744427781341       -0.00461442390268
C            3.73278357227334       -1.61349604042709       -0.00538209216132
N            4.49483071509433       -2.73598242244015       -0.01081227185201
H            4.02403478228406       -3.62262459188740        0.00015420431217
H            5.49648699719451       -2.69665100077927        0.00491911763016
C            4.38407960376817       -0.36860063717359       -0.00465343920829
C            3.88989715818122        0.92488029279578       -0.00357974222228
C            2.56006680680364        1.37663527324002       -0.00286772034635
C            2.35940370969911        2.76940773685288       -0.00115055128771
N            2.16590465265463        3.90395731558916       -0.00103016588353
H            4.63816856507737        1.70875827177185       -0.00307570440551
H            5.46567870333865       -0.44235602366041       -0.00521091083595
H           -0.62834214844185       -2.98642626471725       -0.00307167791086
