26
 energy: -47.183145915869 gnorm: 0.000598031877 xtb: 6.6.1 (8d0f1dd)
N           -4.80571707127409       -2.43121972536424       -0.00272587473004
C           -3.95346349761726       -1.66029728607738       -0.00190277918655
C           -2.89171064902452       -0.73348946661775       -0.00144103561411
C           -1.57131412674492       -1.31678997431943       -0.00167721983380
C           -0.46795195225933       -0.55524574314227       -0.00119413919537
C           -0.30852468663119        0.90840189389085       -0.00032369456219
C            1.07195090428910        0.81110435543887       -0.00021769629108
N            2.09940312745181        1.66225665468825        0.00050564940802
C            3.32462596810123        1.22455820636804        0.00040634136755
N            3.88500467237315        0.00404361704015       -0.00049902077398
C            3.35921253310325       -1.19087353520486       -0.00141181625336
N            4.26052929315948       -2.19727358187092       -0.00215685636321
H            5.23673951519339       -1.95723347135506       -0.00222667260785
H            3.98181510417949       -3.16123546060985       -0.00324380797895
C            1.95977066666727       -1.60397417500857       -0.00165749620935
C            0.99022970636457       -0.68517595532082       -0.00114417244764
H            1.74503235468037       -2.66505389036756       -0.00231600253451
H            4.07554625143801        2.01080266906565        0.00109882166649
C           -1.29443188495335        1.93709751167889        0.00037385655324
N           -0.84237556064772        3.19856387888599        0.00135310381500
H           -1.49996753639370        3.95919825113907        0.00194495104561
H            0.15068935343660        3.36458132649934        0.00159837233344
N           -2.60158392963403        1.76662809905296        0.00015680855649
C           -3.25862142364216        0.60120927035094       -0.00070364343584
H           -4.33394718656140        0.77240591919626       -0.00078189597683
H           -1.50978223015402       -2.39703417413656       -0.00229019975113
