29
 energy: -50.349600040852 gnorm: 0.000984815112 xtb: 6.6.1 (8d0f1dd)
N           -1.77933186846456       -3.71757372522396       -0.03942170417057
C           -1.63374777345617       -2.57627021013348       -0.02854035405544
C           -1.51375262337737       -1.17742152100563       -0.01833238169143
C           -0.31488456099072       -0.55671361528626       -0.00773375643101
C            0.04067780589584        0.86503233861160        0.00645461316044
N           -0.68899879491669        1.99780096277371       -0.00859105832059
C           -1.98759286831233        1.95152582888577       -0.03729628607893
N           -2.63381776022550        3.14811431728121       -0.13178677605761
H           -3.62047139762746        3.15339677090046        0.05472824658932
H           -2.09918599971284        3.98148083018188        0.03660244046531
N           -2.89162491835765        0.91830466625612       -0.01445929645642
C           -2.75381678051068       -0.36108284883862       -0.00453957612216
N           -3.89753030248454       -1.07777186686079        0.03512662428722
H           -4.77226701839276       -0.58361439104989        0.03381223067934
H           -3.88377274283284       -2.08292245417285        0.02560492750400
C            1.39597023954730        0.54981820537506        0.02743635521016
C            1.12877073040309       -0.88556159879713        0.00609855507381
C            1.91616691097586       -1.96778398972034       -0.00870219016811
C            3.35224629626317       -1.87792769038852       -0.00400455604341
C            4.13778949886941       -0.77125175414139        0.00349764504503
C            3.84582207342449        0.62948875402390        0.01269572798385
C            2.63321809349772        1.26484303468390        0.03399658416125
N            2.51418484013259        2.62126762840599        0.09822380245946
H            3.31256125261176        3.20205323706051       -0.08929303791604
H            1.59405443806826        3.00315186683182       -0.04680623146897
H            4.71832020409696        1.27243308355073        0.00806465562686
H            5.20423391635042       -0.96981717835745       -0.00046580228369
H            3.86238827312901       -2.83238259723104       -0.01179418262555
H            1.47633321399671       -2.95562981641575       -0.02792189615634
