30
 energy: -54.871642333708 gnorm: 0.000738858543 xtb: 6.6.1 (8d0f1dd)
N           -5.73943981672716       -0.01511382321825        0.10593699873498
C           -4.59167977052087       -0.03899834661853        0.06793325082933
C           -3.17572633282025       -0.07318732551635        0.03920380644824
C           -2.61119811249344        1.20075370984185       -0.00755088116314
C           -1.26077632611183        1.58424625183462       -0.03302415321724
C           -0.97499910596941        2.96962689298004       -0.06816692932946
N           -0.73839688769847        4.09168203430472       -0.09667669919369
C           -0.20822995920589        0.69619056709798       -0.03062797353911
C           -0.20766770175995       -0.80628678243773        0.02294445736258
C           -1.23984282354788       -1.70002647102532        0.08710130003203
C           -2.60641397820579       -1.37803266788689        0.08061863519940
N           -3.48077970353870       -2.43455913927218        0.06590343603720
H           -3.13661269783448       -3.34843128208312        0.30179112909505
H           -4.46036090510029       -2.26139394664072        0.21757911959931
H           -1.00395753482707       -2.75727513259288        0.14997627474772
C            1.20376814683473       -0.79486949957768        0.02338213528076
C            1.20205852864334        0.69212494806999       -0.03431067616187
C            2.26312649763470        1.54887972521547       -0.23495272622999
N            3.53479661839485        1.21868878161626       -0.17140953325280
C            4.03037859155127       -0.00893174940658        0.07390256826544
N            5.32678770002768        0.03952953976187        0.44052881068224
H            5.78396628349887        0.93258486335947        0.48308014567327
H            5.83405304061965       -0.81468736809070        0.58420070383449
N            3.57127276849682       -1.24648880455426       -0.06966836910378
C            2.29801631942646       -1.64070525283938       -0.13664855397496
N            2.12988814978120       -2.97624771049157       -0.30137921701849
H            1.22174281260976       -3.33470123567138       -0.53436262386125
H            2.94313350965677       -3.51517979089558       -0.54463313442083
H            2.07769298393338        2.59698533762823       -0.45005362541048
H           -3.32644752904904        2.01572342300898       -0.02218168564349
