28
 energy: -46.618225996813 gnorm: 0.000997858334 xtb: 6.6.1 (8d0f1dd)
N           -1.01930301033466       -3.97117202261275       -0.02237348352394
C           -1.31018130813539       -2.85980600905320       -0.01358829718027
C           -1.65694668982283       -1.49251214664734       -0.00219251113712
C           -0.61157458114422       -0.55243986803697        0.00704536902998
C           -0.69156237460989        0.93182005536901        0.02077079199939
C           -1.72570751190167        1.78846676405396        0.02582026597919
C           -3.10557802571558        1.39348083007166        0.01693712001914
N           -4.00458529332623        2.42905338937401        0.07677070557924
H           -3.68538299922011        3.35893183724493       -0.12958032867084
H           -4.97529362495250        2.23645970970065       -0.09981377245470
C           -3.61296316170807        0.10579416807891        0.00260385404157
C           -3.00021668373616       -1.15774229300455       -0.00240497717768
H           -3.68899364348714       -1.99442721611465       -0.01224389833323
H           -4.69753844451897        0.06152034712544       -0.00277149523230
H           -1.52876714536635        2.85407184540631        0.03711321165614
C            0.76046868936278        0.97901837951070        0.01855984256540
C            0.77725394771097       -0.50693845848857        0.00524877437167
C            1.88366385824453       -1.36096389911878        0.00608207510481
C            3.17159743776705       -0.91714332025723        0.00676940449113
C            3.66641516478739        0.44808532408290       -0.00198469601782
N            5.02024565671296        0.53506848095516       -0.01671335399134
H            5.60514600095462       -0.27725528119792       -0.08678876805134
H            5.43038834370465        1.45172462889705       -0.05492308904449
N            3.08915904056608        1.62346176204650        0.01278672802577
C            1.76094966704030        1.88109159241142        0.03105535231640
H            1.54283469024756        2.94487166817195        0.05131255764855
H            3.95436949510241       -1.66515557394522        0.00822794357451
H            1.70038241147853       -2.42858676302317        0.00604259431200
