28
 energy: -50.627978408992 gnorm: 0.000927639207 xtb: 6.6.1 (8d0f1dd)
N           -0.80176130552840       -4.04829761541809        0.00935240848776
C           -1.12958701792357       -2.94490967911781        0.00873890080267
C           -1.46418676461851       -1.57980255072670        0.00980335335919
C           -0.44679670107910       -0.62524362307653        0.00492138400774
C           -0.62926942638647        0.89152138380378       -0.00111342510488
N           -1.64400003201587        1.68416791208558        0.00285100022725
C           -2.91268673986472        1.19025811231346        0.01607266910628
N           -3.85526199914333        2.16851812351498        0.06523319123262
H           -3.57364714466587        3.12069185426060       -0.07875721485844
H           -4.81683460970092        1.90238343051566       -0.04432679666543
N           -3.40400802248813       -0.03242068268967        0.01111797525337
C           -2.81853146595142       -1.21635797258410        0.01067213629476
H           -3.53710274360069       -2.03221965408941        0.00762700931593
C            0.77906475050723        1.03474602274499       -0.01080389594433
C            0.92948480668744       -0.44229504114513       -0.00479006375809
C            2.13253534100897       -1.19920927931836       -0.00762615851645
N            2.07184154731329       -2.54043827821770       -0.01279601612164
H            2.94214392070217       -3.04482853173419       -0.01212391335222
H            1.19903834770280       -3.04367557314309       -0.01096382686603
N            3.35959560313116       -0.70274104115495       -0.00429956675441
C            3.73537455943360        0.57955776487495        0.00044767110428
C            3.09826856503414        1.79394920371632       -0.00237188348412
C            1.69676442857323        2.06112423672696       -0.00943404056024
N            1.26215512008354        3.34012760107140       -0.03272976457030
H            1.90641827596287        4.10590110526475        0.05244728334883
H            0.27233230251205        3.50826358364763        0.02087050817301
H            3.73694659024308        2.66806135041834        0.00107148013492
H            4.82272792017141        0.64244150665680        0.00804853390802
