29
 energy: -51.146594428836 gnorm: 0.000571617339 xtb: 6.6.1 (8d0f1dd)
N           -6.34479973929016       -0.71872099442424       -0.00244961162652
C           -5.22645606607398       -0.46297410661525       -0.00012378860975
C           -3.84296106079382       -0.15042574268833       -0.00003557480970
C           -3.01182230852770       -1.29729155666551       -0.00124469180129
N           -1.69577813946007       -1.40919641705684       -0.00101577876482
C           -0.91695540477107       -0.36150708504463        0.00058356228706
C           -1.13969796172436        1.14401948971766        0.00245816043329
C           -2.30388440539249        1.84654680297591        0.00299150424655
C           -3.55881277422573        1.21658940144326        0.00181045664627
H           -4.42474065168661        1.86825009689448        0.00242871463458
H           -2.28531806200456        2.92942802113279        0.00440127988667
C            0.27193085602110        1.31263080436702        0.00309927622389
C            0.46822686697946       -0.14492270156810        0.00128505147194
C            1.60384368681647       -0.95303415196572        0.00055264542132
N            1.41217483519746       -2.28303774826966       -0.00125524688507
H            2.18525049283024       -2.92661684884366       -0.00192903465918
H            0.46352624571086       -2.62190011098158       -0.00194907291010
C            2.91965867294761       -0.41836700229749        0.00150863818556
C            3.94515789764690       -1.37714615247210       -0.00069006773103
N            4.77420932053879       -2.17848172438936        0.00170728239358
C            3.33336053229046        0.94644306799227        0.00338527628707
N            4.67658099651638        1.13703438040544        0.00365778042199
H            5.05864233309939        2.06521844754399        0.00546977807204
H            5.30555101316997        0.35213302089465        0.00323101350144
C            2.57027354523976        2.13185904537827        0.00476823994622
C            1.19899331964371        2.32559083845261        0.00464674454935
H            0.84389890104228        3.34813607556072        0.00583340373564
H            3.17083481335978        3.03371837222468        0.00599182702967
H           -3.52598236640015       -2.25295061810132       -0.00256474577671
