34
 energy: -62.556271811955 gnorm: 0.000486354835 xtb: 6.6.1 (8d0f1dd)
N           -5.71770372777174       -1.60977606472272        0.01543033510789
C           -4.78564837027544       -0.93252260056002        0.01195270271611
C           -3.63829670988104       -0.12094125527493        0.00757954027930
C           -3.90940369921876        1.25912228282453        0.00805521949892
C           -3.12552032922048        2.38744537685859        0.00422175138680
C           -1.71390519593103        2.46428383167150        0.00071574026536
N           -1.10397960435046        3.66681237075678        0.00192211452477
H           -0.09836124528837        3.68864062143100       -0.01729344788736
H           -1.63241827089631        4.52010215927559       -0.01951928976316
C           -0.90926159386614        1.33333560509544        0.00081081997427
C            0.46753817533260        1.10072866318999       -0.00535672597802
N            1.52778102420266        1.85393227942902       -0.00556573631807
C            2.76958610607875        1.36885384302425       -0.01234593695838
N            3.71226414167664        2.35106863962187       -0.05401091498543
H            3.39368674189999        3.29768984128885        0.04565345628017
H            4.68783779334350        2.14213764999027        0.06082340239931
C            3.22721367249956        0.01736555759965       -0.00682500290176
C            4.63245874729343       -0.09702662505052        0.01342385439212
N            5.78045125354092       -0.18041889089360        0.04286451202804
C            2.54331046170101       -1.22207522822538       -0.01256081763875
N            3.30948845494919       -2.34801384426180       -0.02817572298133
H            2.87676932473394       -3.25385143494263        0.00824226405666
H            4.31151159338046       -2.28368477185834        0.00357977106248
C            1.13167438347408       -1.42746375268494       -0.01129685323900
C            0.67890624824511       -2.75778535889681       -0.00885826025663
N            0.28954671968711       -3.84219695214682       -0.00369635647572
C            0.20366793045272       -0.40344089845146       -0.00765898407337
C           -1.17450865891581       -0.13858544300860       -0.00096770585277
C           -2.38977579943182       -0.82198034631033        0.00230794917211
N           -2.43137211742058       -2.16631553448226        0.00034785978556
H           -1.59167926189027       -2.72108883844827       -0.00358091347987
H           -3.32309600943733       -2.63457775253579        0.00217562277701
H           -3.64597589286491        3.33630128725654        0.00446272789089
H           -4.97628696913134        1.46380369474126        0.01114212749183
