29
 energy: -50.344028977049 gnorm: 0.000916828691 xtb: 6.6.1 (8d0f1dd)
N            5.52699299315656        0.58620714045903       -0.03717249493125
C            4.37980303180551        0.51323929190677       -0.00155212017984
C            2.97177623524775        0.41453070801656        0.02190411499269
C            2.32171747278680        1.66247775484161        0.02760725926868
C            0.96455889346417        1.95289656275666        0.03167936248175
C           -0.00142983711598        0.97655078068165        0.02278314718588
C            0.18645116313430       -0.53817143596953        0.01488240217491
N            1.20046947238367       -1.34371117549309        0.01372687844574
C            2.47128701758834       -0.91482682593779        0.02496930887577
N            3.37242592177434       -1.94222388029664        0.08380568713342
H            3.01413812707151       -2.86681043957622       -0.07618223294129
H            4.34662689102078       -1.76512764214210       -0.08925938855897
C           -1.21405867387288       -0.69452047174623        0.00906908703629
C           -1.38793946873807        0.77787225006622        0.01626536416298
C           -2.57958641381902        1.51891570236883       -0.00565240262016
N           -2.52032038991579        2.86834166350532       -0.03131851909663
H           -1.63933878290280        3.34626780061294       -0.06202437434095
H           -3.38328515886052        3.38168447209278       -0.06464329049420
N           -3.81618239230337        1.02723287671109        0.00177268628875
C           -4.17966820785679       -0.25249661401319        0.01718748342091
C           -3.53098532977415       -1.46666601317210        0.00641414121285
C           -2.13279297635501       -1.72627781931214       -0.00056550828482
N           -1.68709436996016       -3.00004959863333       -0.01677527279026
H           -0.69478591138941       -3.15864820388520        0.00669543598312
H           -2.32453762207991       -3.77568450821272        0.00166696346168
H           -4.16698353147699       -2.34296580507987        0.01045115230069
H           -5.26649575566397       -0.32773715331139        0.03533470918489
H            0.68157441752109        2.99955875664878        0.04032733728381
H            2.99604087092986        2.51129758481335        0.02612089324351
