25
 energy: -47.455436964567 gnorm: 0.000874864328 xtb: 6.6.1 (8d0f1dd)
N           -1.41275618917109       -4.05720469900464        0.03608073378698
C           -1.48518393525872       -2.91259884701157        0.01147421995167
C           -1.57777618847219       -1.50332183206792       -0.00809497328234
C           -0.45389728058650       -0.72607607315789       -0.00703460422253
C           -0.35330331088974        0.78820263633421       -0.12933788547090
N           -1.24990205934882        1.74620608901357       -0.15117016078616
C           -2.54753333099659        1.48199252758162       -0.05521582028154
N           -3.34830189566781        2.57044681383997        0.05125078814207
H           -4.34127296604195        2.43615758561394       -0.00882197129664
H           -2.94982187511524        3.48219200240159       -0.08025493783949
N           -3.25231766936129        0.32986908363828       -0.06058193328120
C           -2.88104290562992       -0.90959902579646       -0.05583909035450
H           -3.71350063528052       -1.60899073797556       -0.09859185042680
C            1.02915098829522        0.69081953054652       -0.22031639481435
C            0.96253167845218       -0.79490688803300       -0.04727400103546
C            1.99330299606239       -1.63374139539796        0.27861728894023
N            3.27291220606284       -1.33135949805602        0.06761682520477
C            3.78220037081729       -0.18017887670602       -0.27704141086326
N            3.40964517163308        1.07833445416727       -0.10293195738830
C            2.15946916882191        1.51330616878635       -0.01434123638978
N            1.96982921551178        2.81372896330257        0.24962478175395
H            1.03493453331916        3.18376386826453        0.24291356738872
H            2.76088619487703        3.39994188405055        0.45103422250821
H            4.78913425917726       -0.26266757823118       -0.68552846385842
H            1.80906780459031       -2.62870033900257        0.66803270721493
