28
 energy: -45.832758710591 gnorm: 0.000729158144 xtb: 6.6.1 (8d0f1dd)
N           -0.61107109948725       -2.79681211568471       -0.43000692934759
C           -0.15614672239475       -1.53552534893417       -0.20822244898662
C            1.27122952508492       -1.49441850339765       -0.06668077659721
C            2.24295309205903       -0.55261949785641        0.00859848636217
N            3.52044714027813       -1.04076814260922        0.17869021371936
C            4.32890852936568       -0.00634266245764        0.14404828914951
C            3.65846582022552        1.21609624211693       -0.05552898638606
C            2.30434197193686        0.92876406816614       -0.12969109016905
C            1.32523984710956        1.90722693333087       -0.30828511963717
C           -0.05239637525714        1.89749220020973       -0.29402319845046
C           -1.04776149699888        0.94324223658124       -0.11262836093513
C           -2.40410576528055        1.33758069345274       -0.04320990675105
N           -3.24390313775586        0.29602053033091        0.09591475725309
C           -2.50066442067276       -0.80475540667252        0.07843599537267
N           -3.12343570537647       -2.04463981208908        0.20499766426306
H           -4.11903065465296       -1.90198353163391        0.33468337567771
H           -2.74179033886762       -2.61411204563092        0.95133549039004
C           -1.10603604360667       -0.53589527320118       -0.05279553208975
N           -2.92578999057083        2.60185823906148       -0.12445484079449
H           -2.36043296306060        3.35919736209256        0.22339505227760
H           -3.89719288263486        2.64591293454502        0.14126761548087
H           -0.47266619332932        2.88874977462539       -0.43848661026120
H            1.75698775732960        2.89388552109206       -0.44923021254240
H            4.11353523967799        2.18614888858279       -0.11964751946573
H            5.39113494302648       -0.14192110288011        0.26200466233237
H            1.70238759960034       -2.49050625971846        0.00320189268658
H           -1.56932787786541       -2.91905579103312       -0.72212531668593
H            0.05434500711847       -3.52091567018898       -0.64028140026304
