35
 energy: -61.486892807795 gnorm: 0.000727721027 xtb: 6.6.1 (8d0f1dd)
N            4.62616913585662        1.28781413301328        0.84908576805286
C            3.75661600591797        0.60233956613323        0.53219153071517
C            2.77958799034430       -0.33864905181426        0.22972958743080
C            3.02765425735539       -1.76418430506441        0.29952574431169
N            1.95468642232282       -2.46607852358029        0.00371754607487
C            0.93480007051303       -1.58078595308886       -0.21632035594107
C           -0.25155817432970       -2.09857943684458       -0.64334409032817
C           -1.59202498883316       -1.63640112603769       -0.70239672253660
N           -2.45377525795017       -2.55055919788425       -1.24660249725224
H           -3.37528659584689       -2.24063940954694       -1.50536544407080
H           -2.06335757661938       -3.32776917567000       -1.75111157203133
C           -2.16007611463486       -0.52381814823371       -0.08150569850627
C           -1.64286166501945        0.82153019730775        0.17790065162314
C           -0.49631836557182        1.48735543015780       -0.33922415395048
N           -0.69591338324971        2.78808006890400       -0.67401020658859
H           -1.62966785847177        3.15696987778472       -0.70003387659737
H            0.07167897294587        3.34724171933933       -1.00697759133354
C            0.83454838605651        1.03504362611737       -0.43468316496001
C            1.76347449534947        1.99748534204697       -0.88105253614179
N            2.47805452275504        2.78839302299879       -1.31722082320717
C            1.43244777505725       -0.19567067501366       -0.08301432300955
C           -2.68343143906355        1.53475332239075        0.79775454341765
C           -3.79504732706547        0.69292126495650        0.96504995117940
C           -3.51377205047396       -0.52954954609042        0.39263797972856
N           -4.40299424828134       -1.60102990358679        0.35778556973726
H           -5.18503703637651       -1.45869551485676        0.98360115925888
H           -3.96877774987025       -2.50287935113436        0.50525824786085
H           -4.71132675722902        0.96487641805030        1.45732188344493
N           -2.66886053747214        2.85847092616336        1.22153398061434
H           -1.76338821898519        3.20233499823398        1.50979139320042
H           -3.38744749302853        3.05898015125829        1.90287209392489
H           -0.16092057005276       -3.15671152649027       -0.87226380195184
N            4.20611554295295       -2.30898178536622        0.62498909340842
H            4.29662447792321       -3.30809624654427        0.65104372578260
H            4.99283561647539       -1.71904930590819        0.83040329844139
