31
 energy: -55.404022493643 gnorm: 0.000881786566 xtb: 6.6.1 (8d0f1dd)
N           -1.23911943955865       -4.39038504701104       -0.13843242433135
C           -1.05660910881721       -3.25751050602195       -0.09632819984344
C           -0.76299694659429       -1.86991357009469       -0.05806901353378
C            0.60017167333553       -1.63264252235242       -0.05098432672438
C            1.44197209774404       -0.52023542568545       -0.04503873837941
C            1.25761555594908        0.90329769613275       -0.38783235785383
C            2.54608405325481        1.48106457517387       -0.41463886171166
C            3.49178404087066        0.52943422357011       -0.06089950746992
C            4.86620000642992        0.72809906280838        0.09321859493536
N            5.99914917687206        0.85910022717919        0.23506682021910
C            2.82848145922154       -0.71214521794225        0.14184521927214
N            3.48687436669029       -1.86181850719380        0.43846183887221
H            2.98632977364501       -2.65214501131682        0.80358657098492
H            4.46202497628777       -1.79150868308709        0.67552437530664
H            2.78686758361064        2.51547168519928       -0.57789254094963
C            0.12689288705741        1.66712114857608       -0.67300123228429
N            0.30925028689695        2.85723341053677       -1.29033674796194
H            1.21263730003329        3.12797413001873       -1.63435990197782
H           -0.46107308304575        3.48989502055956       -1.42034884863333
C           -1.24256549017822        1.46680686408569       -0.28515732763469
C           -2.03973966738419        0.42826475955259        0.05074386479526
C           -1.90635051440528       -1.04074373903327        0.07197132365631
C           -3.16743762849998       -1.55640781013473        0.29883145021715
C           -4.10033272770893       -0.50882458565033        0.47245517601864
C           -3.44742372580868        0.69216678484542        0.34074816306316
C           -3.99434148486119        1.97137924332267        0.41740801450475
N           -4.40842084160223        3.04443214567823        0.46353279456278
H           -5.14796480483394       -0.63735521433360        0.67594999488813
H           -3.40893327851456       -2.60147068807756        0.35753942306318
H           -1.77772324544324        2.41593752192369       -0.28110832544351
H            1.16213521605893       -2.56381895402684       -0.03298741283051
