24
 energy: -43.759728713463 gnorm: 0.000546615815 xtb: 6.6.1 (8d0f1dd)
N            4.48592116704182        1.79716425809630       -0.23291143694014
C            3.69616802811354        0.96394610536232       -0.19554641073973
C            2.73846976567570       -0.05144511942129       -0.17043025702445
C            2.92600655051391       -1.39997751996197       -0.50110279797300
N            1.82290898807398       -2.13337569167559       -0.38685693544667
C            0.84934506252234       -1.35124245403594        0.07688180638660
N           -0.36866083767969       -1.74910811496327        0.16174085518919
C           -1.58197705370883       -1.28592010753591        0.28269424598004
N           -2.48487632799834       -2.16806204139127        0.75502577924179
H           -3.45969907134995       -1.92790284086159        0.77758194562789
H           -2.19174094414616       -3.10935749829875        0.95608549335860
C           -2.08065954137051       -0.01551358552120       -0.16044813068817
C           -3.35652795426864        0.17126076493755       -0.68718473046637
C           -3.62398252378836        1.54579328866783       -0.76948369990218
C           -2.56039239566160        2.23154838722111       -0.21917616563963
C           -1.55390407015898        1.30671552512947        0.13690601055369
C           -0.35333385743976        1.68054356278365        0.75438165700272
N            0.81598470229625        1.14544999492967        0.62928055619204
C            1.40465927071286        0.05542004755427        0.29759121115046
H           -0.33748197997576        2.64315118192337        1.26035706483244
H           -2.47167373507883        3.29649285942966       -0.11336946348951
H           -4.53211114928362        1.97915506413028       -1.14529735496321
H           -4.01967283725982       -0.60920326322753       -1.01623040843598
H            3.84866377081502       -1.85581302697644       -0.81447136100830
