27
 energy: -46.922564585531 gnorm: 0.000946732958 xtb: 6.6.1 (8d0f1dd)
N            4.66173424474138        1.74230366136034       -1.01067753106783
C            3.92906135668592        0.94821679953565       -0.61451931716130
C            3.02615558142123       -0.00085588907507       -0.14492006137053
C            3.30938290628848       -1.12559336846104        0.64436831786670
N            2.23650416812015       -1.84496009202274        0.95923495537289
C            1.18559642382894       -1.25883547751135        0.35997767801916
N            0.06715778570989       -1.88204626085194        0.24087769938844
C           -1.15672418334736       -1.69190075010996       -0.17244267586371
N           -1.73824951322335       -2.76780238118839       -0.74454708779139
H           -1.21704716632351       -3.62493421960378       -0.80890534375397
H           -2.70864467318785       -2.74867297370559       -0.99893768402445
C           -1.96592942110429       -0.54895030507185        0.07475955378605
C           -3.32448391296040       -0.59504009444821        0.32730960990888
C           -3.83394989536706        0.71025434055506        0.45438218655601
C           -2.81333734746651        1.60594038971908        0.21836771005219
N           -2.93746463273328        2.97096944661387        0.18313523347355
H           -2.11383885945199        3.52026367802656        0.36802595097694
H           -3.78260496388266        3.33886473820271        0.58906083433485
C           -1.58957633716146        0.86864111173288       -0.02641209577736
C           -0.45164284625273        1.50762339444336       -0.45331374909147
C            0.89271955308884        1.14283004609684       -0.64336027523552
C            1.61234913897789        0.03139565941490       -0.28373371770039
H            1.51565780759949        1.95709317180772       -1.00452673674193
H           -0.60571790610991        2.56530012503035       -0.64786520328645
H           -4.85452533888489        0.96185233755933        0.67538318978763
H           -3.90579769827767       -1.48852480216518        0.47086635112290
H            4.28251109356917       -1.42732309738554        0.99176757361926
