28
 energy: -45.835441413579 gnorm: 0.000809575941 xtb: 6.6.1 (8d0f1dd)
N           -0.27901584473041       -3.18565633269877        0.62954544544291
C            0.01311285309770       -1.88704322813469        0.33913808028150
C            1.40384304703768       -1.59482594258921        0.35615467079344
C            2.16517539758653       -0.48392306997345        0.13379238340415
C            1.81028174409528        0.97833926647472       -0.04538839268017
N            0.75704953053252        1.64060851872536        0.37188544517443
C           -0.49108624556763        1.39187091570344        0.61936777572394
N           -1.13233776421303        2.31302254175068        1.37942594447962
H           -0.62466799331281        3.11922909232859        1.69850094033375
H           -2.12919425321562        2.25909269340052        1.49162028622074
C           -1.30876311758758        0.35263680283202        0.06696771673277
C           -2.63168281485625        0.52171671490245       -0.33621659856249
N           -3.20641546103483       -0.64896048429967       -0.70706289821777
C           -2.31360677187893       -1.59066877246548       -0.48077972384987
C           -1.06941616566690       -1.07438292345649       -0.02007066107701
H           -2.54151309045562       -2.60692727494472       -0.75296956374839
N           -3.36796311340294        1.70108144015553       -0.38353023276895
H           -2.85099456279653        2.49558373677830       -0.73705274768486
H           -4.22975280643352        1.55782225939668       -0.89372014975254
C            2.93827995696443        1.59455405487350       -0.55314330214066
C            3.98325303930408        0.65297741141817       -0.61510015726825
C            3.54841517516760       -0.57037330644309       -0.15733115680509
H            4.13027745869350       -1.47208619256463       -0.09436487159206
H            4.97910794051220        0.86944462588762       -0.96253486992594
H            3.01125411938854        2.63355605451396       -0.80815109696961
H            2.00384555769835       -2.49866658271468        0.45453397833613
H            0.45442047967119       -3.87209267924184        0.66758456222226
H           -1.22440145649758       -3.50902686931327        0.52780634599804
