27
 energy: -46.123765229523 gnorm: 0.000684474853 xtb: 6.6.1 (8d0f1dd)
N            5.10814167730062        0.09045056558523        0.54416006917073
C            3.81328503280177       -0.02394626058502        0.20281654235685
N            2.97354565331407        1.01762421527727        0.40442172747514
C            1.77774981357127        0.62989222438442       -0.04016731897437
N            0.84521878433105        1.49990582398269       -0.23121067182050
C           -0.42957380485979        1.58083977622474       -0.45887564438841
C           -1.46044738855028        0.73541154619968       -0.08886163293639
C           -2.81481701998911        1.12457693015949        0.03847635714878
N           -3.63273091101796        0.08498033203421        0.28194702118000
C           -2.87092191506541       -1.01170286081351        0.27715996799573
N           -3.42872509948176       -2.21817386757558        0.55347650789639
H           -4.43330112585738       -2.24859840879273        0.50025999250315
H           -2.93252561956239       -3.05148524446436        0.28747707564960
C           -1.48239718192294       -0.72982291096130        0.05425676999942
C           -0.57349742462162       -1.72051097704707       -0.25374270440188
C            0.79788023435647       -1.76737867591823       -0.50939117626625
C            1.82005669672157       -0.83759757957794       -0.41886209238298
C            3.17200951782874       -1.15891731307604       -0.32019004751856
H            3.63093507712567       -2.10816401862552       -0.51787078108568
H            1.16741690880182       -2.77339399073102       -0.68959287478269
H           -1.01843871028014       -2.71299053459006       -0.26913701726090
N           -3.32444639540297        2.38038893584100       -0.06429140926500
H           -2.69826997787518        3.15634415024281        0.06396278188472
H           -4.26169568699836        2.49303180543945        0.28497194345170
H           -0.71525406830752        2.52857581514807       -0.91666035121692
H            5.77526722433771       -0.59458454230451        0.23792962821244
H            5.42908756920299        0.99205696894456        0.85101563587623
