31
 energy: -54.607826045746 gnorm: 0.000429237155 xtb: 6.6.1 (8d0f1dd)
N           -4.30564165913169       -1.23853855272745        1.27462345265360
C           -3.45858503720155       -0.60134933408979        0.82555604196976
C           -2.52314819994055        0.30493738182949        0.33574735771197
C           -2.84119286640232        1.69809031935262        0.14413683236023
N           -1.79333329405581        2.38681159241809       -0.27950052201197
C           -0.73553251723189        1.53907503540274       -0.32778318613181
C            0.45841403279586        2.07629806673713       -0.74590460172335
C            1.78998695659859        1.66181218745172       -0.65903866640409
C            2.42761494013854        0.56615504346893       -0.13860225943972
C            3.84640918431195        0.62705756447508        0.14759774475744
C            4.21644343954019       -0.53403716004699        0.79145656845995
C            3.10808005954766       -1.39248868175665        0.83106651806931
C            1.99245570788234       -0.77749302506497        0.27416742463811
C            0.80702543066689       -1.51427372406943        0.00240770712566
N            0.99212551765306       -2.85418071201979       -0.10406467998302
H            0.20425487847162       -3.47347686724643       -0.19653664843508
H            1.91942757362345       -3.23580101267417       -0.09263519049828
C           -0.53594341149348       -1.08680499493767       -0.08874190633191
C           -1.46370189983252       -2.13345776510259       -0.29951361445229
N           -2.17658257241689       -3.00070971462357       -0.55219938210754
C           -1.16676705124881        0.16910933979230        0.04068739595298
H            3.13241033462862       -2.36464875624017        1.29120875244565
H            5.19119650516130       -0.75452476817525        1.18575152205973
N            4.65693912600976        1.71828978872929       -0.04304416773334
H            4.44218738769565        2.33404866562786       -0.81088104219027
H            5.64077227461382        1.54523271698410        0.08608102165218
H            2.47052621414036        2.44860418119625       -0.97042786270039
H            0.32824462035150        3.09499310246523       -1.09335221786600
N           -4.04002395103048        2.24610683584806        0.35932728157335
H           -4.80263510593245        1.67937787257391        0.68746943983636
H           -4.16505815240999        3.23103512982152        0.20715415134061
