31
 energy: -54.608087835621 gnorm: 0.000989116772 xtb: 6.6.1 (8d0f1dd)
N            5.87373909215618        1.53978650343592       -0.38703516956449
C            4.78167683823901        1.26470451393560       -0.15241861269702
C            3.46535500020954        0.87272757862917        0.09472872895330
C            2.43818709660051        1.63639285048735        0.65644924333219
C            1.26005750436327        0.88763799217683        0.65014100517479
C            0.05740561722082        1.45941632564478        1.08487541902602
N           -1.16122590747197        1.25705263117107        0.71258829568586
C           -1.87078277452049        0.30610630272461        0.18090743484290
C           -1.67303863073403       -1.17976030159296        0.24273841866436
C           -2.91333471584282       -1.75775468905356       -0.06547554856681
C           -3.79503030723257       -0.76263066300162       -0.47747017100922
N           -5.04552683394933       -0.91969919361754       -0.93845658975956
H           -5.48524402165778       -1.82243739244703       -0.92910643476291
H           -5.58458149357657       -0.11163502454251       -1.19869923390116
C           -3.14809963869507        0.51210057764647       -0.35357890293872
C           -3.76455704227540        1.72111292306362       -0.65791157329379
N           -4.33294721840628        2.68226532920504       -0.93880030593772
H           -3.12353359113706       -2.81125090005542       -0.06650767925592
C           -0.52142673901510       -1.92076749552400        0.37530177081422
C            0.86569925317149       -1.66315687532076        0.30050048247041
N            1.61886099917858       -2.80009894359177        0.28702473366030
H            1.17848893342944       -3.67676898924841        0.50733406654974
H            2.61430247792101       -2.72449717106154        0.42531355500919
C            1.58433630010241       -0.45373004577667        0.15226332689261
C            2.95469813196812       -0.41126130971667       -0.19892386301853
N            3.73161042938501       -1.43581297439806       -0.72648070259015
H            3.27453284493558       -1.99198341665854       -1.43720548912888
H            4.64188537565229       -1.11015190573595       -1.02841204294783
H           -0.73060423199826       -2.98921688793407        0.38669662693102
H            0.16423009165290        2.33841311430887        1.71928249237807
H            2.52568978443461        2.65724684564400        0.97745939628690
