27
 energy: -46.112049213654 gnorm: 0.000745935948 xtb: 6.6.1 (8d0f1dd)
N           -2.75766324071974       -2.74464323786606       -0.15036185554447
C           -2.35098209957539       -1.44971627767857        0.00809921106445
C           -3.20795751913943       -0.39173295598911        0.33639031397946
C           -2.47867236270632        0.78420830977308        0.35662805863811
N           -3.02954687496588        2.02836741492403        0.63932183431088
H           -3.97015349675479        1.95715857981782        1.00441952230538
H           -2.44638228108085        2.62128689673811        1.21523341770226
C           -1.10482801277066        0.51096454323141        0.04842165237818
C           -1.03106758922824       -0.95472139715790       -0.11001082354250
C            0.03542096389300       -1.80425326576179       -0.38691446731931
N            1.28733195346151       -1.74841819970864       -0.06113096712309
C            2.19322441520676       -0.84905586402917        0.12992617529948
N            3.38935941708252       -1.10531653042900        0.65525896936423
C            4.11032366767646        0.00455020518343        0.40661374633173
N            3.50213714130252        1.00933656958587       -0.18079416576484
C            2.20853875212748        0.59109213388505       -0.31569355234474
C            1.21460026563504        1.50055699715939       -0.48217284824028
C           -0.21005440592959        1.50925714257058       -0.33966069425810
N           -0.72388031264308        2.76615898471801       -0.52216735502975
H           -1.71241571330828        2.85455719710227       -0.69803588406083
H           -0.12187119792234        3.46102335816737       -0.93066280368913
H            1.61984987595809        2.49746639057664       -0.64032814833579
H            5.14874202302882        0.05564999792401        0.68381813342123
H           -0.22955201451547       -2.77042672592503       -0.81770434410863
H           -4.26207871551473       -0.47806100115958        0.52961254635693
H           -2.05886005031893       -3.46619532428117       -0.09398515417679
H           -3.65164367440854       -2.98372314245405        0.24599178322463
