32
 energy: -58.337285595429 gnorm: 0.000840102180 xtb: 6.6.1 (8d0f1dd)
N           -2.34295926990062       -3.26336112663247        0.17789475742016
C           -1.72484487390280       -2.29709145054239        0.11210248286456
C           -0.86048435848163       -1.17667295022960        0.05906981186275
C            0.47896968621485       -1.57435529657298        0.04214036426015
C            1.70694002782146       -0.95842838807466       -0.04717689052617
C            2.21259231250891        0.42284873864441        0.03685666047622
C            1.61179961104311        1.62684882903053        0.38775660335811
N            2.44002393907009        2.65204776770050        0.73630988965646
H            2.02433580611544        3.49337776917548        1.09950423580433
H            3.37913670035953        2.43126097432048        1.02850891959324
C            0.24326418979808        2.02615107502409        0.34543354311077
C           -0.97647442890470        1.46200152714720        0.12859900510862
N           -2.01614957430628        2.35339695861085        0.06864764901743
C           -3.12154196960974        1.66497814655009       -0.10843797999122
C           -2.87091016852646        0.23517996455598       -0.15059788466613
C           -3.91605719965921       -0.65918725555030       -0.35138304448016
N           -4.88370798744210       -1.25318274428315       -0.54479147444626
C           -1.49811952248693        0.07507582943202       -0.00283764560853
N           -4.33122383111569        2.21578195236186       -0.23348858705138
H           -5.13643299793928        1.62998299835477       -0.37307649464211
H           -4.42575731778564        3.21503069239599       -0.20208435184740
H            0.12953701145493        3.09826788142167        0.48435251040903
C            3.61722102199687        0.27506891046456       -0.15769776272202
N            3.99545720609942       -0.99424923712620       -0.31246757097062
C            2.88897445484501       -1.74380330493432       -0.21797280559204
N            2.99646086992552       -3.09023336679934       -0.28305858228829
H            3.89459438778828       -3.44369811325267       -0.56488874376686
H            2.19088866244844       -3.65406117579702       -0.48908852074129
N            4.57708354051157        1.26467995420215       -0.21208692917146
H            5.47161763301331        0.87447526320631       -0.48081587899582
H            4.32571038741778        2.07536436099508       -0.76212978469743
H            0.55872339573140       -2.65887109309951        0.06434882766274
