35
 energy: -66.298267704388 gnorm: 0.000847688363 xtb: 6.6.1 (8d0f1dd)
N           -0.12877884078020       -4.45788415049433       -0.44309587147453
C           -0.15794767808294       -3.31509612947882       -0.32541286092006
C           -0.27095920096110       -1.90550135857453       -0.23370978436792
C            0.92255261917281       -1.31028248076112        0.13211535902664
N            1.90779890583554       -2.13645960023629        0.54727605482621
C            3.01011798122998       -1.41313392914657        0.68790467840406
N            4.15615017293259       -1.91877639332498        1.13978042781243
H            4.19785597565005       -2.89435414460566        1.37838860313586
H            4.97315363133397       -1.33725348005475        1.21396693874781
C            2.79586797681572       -0.03922339301419        0.30676398562366
C            3.79131812048649        0.92673370898149        0.41596639817746
N            4.67339653098103        1.64618030699076        0.58627150970622
C            1.44576961522459        0.07271177919098       -0.02427953833636
C            0.88470430777854        1.23441288362894       -0.58547630744634
C            1.83209514291761        2.08386090433274       -1.19533301147791
N            2.55483587551180        2.77001090931967       -1.77145778681760
C           -0.43248329983011        1.75569700299032       -0.52931974350500
N           -0.58460469664754        3.01388615148379       -1.00334300365970
H           -1.50543701883597        3.41421441614106       -1.06198121356251
H            0.19655727724229        3.49510988540794       -1.41902341071743
C           -1.58004821741553        1.18075833507342        0.06239458221677
C           -2.11034192450370       -0.18027813289172        0.03886490153831
C           -3.45035600459716       -0.03207423864824        0.51799643525828
N           -3.72964685819438        1.21869521709243        0.86433408920869
C           -2.65184908369460        1.95825199760781        0.54988621842996
N           -2.69943993692977        3.32295433587205        0.74866165908328
H           -1.84491660362975        3.74346630483508        1.08702453469986
H           -3.51023344718737        3.58359212042287        1.29318677686797
N           -4.39557051434589       -1.01758154213065        0.70292384207379
H           -5.16663941267774       -0.67772219919743        1.26238203803913
H           -4.03960816427028       -1.90848294916885        1.02277726420827
C           -1.60927079706280       -1.40825944393924       -0.39323599548137
N           -2.51069502557372       -2.31859645264502       -0.83204561977851
H           -3.45224958537511       -2.02564226198956       -1.02983483532268
H           -2.21130926801947       -3.24375679177207       -1.09187506791626
