25
 energy: -48.275158952337 gnorm: 0.000857555655 xtb: 6.6.1 (8d0f1dd)
N           -4.84930108480788       -2.33391861315950        0.50474670421000
C           -4.22600136259717       -1.37888350126112        0.36849813359752
C           -3.46951373169129       -0.21390812850049        0.22511004262666
C           -3.88387263199750        1.10420999547002        0.43419170408871
N           -2.91322605656980        1.98877523923891        0.22889334424405
C           -1.83674484738514        1.36392007909306       -0.23300636501615
N           -0.69136425269295        1.92376417515726       -0.33340697418428
C            0.57749265608756        1.70717877842220       -0.44908807270466
C            1.35592188328054        0.59609639918932       -0.11211670451165
C            2.75780472285007        0.69338145872961        0.10187521213448
C            3.29978555441661       -0.62303320043797        0.14892472218348
C            4.65362012241293       -0.90470786859047        0.34360999667565
N            5.77427013207735       -1.09089065315019        0.51891830459248
C            2.26674124431964       -1.52422739355811       -0.08810634514125
C            1.05165391014071       -0.82867544823846       -0.21997723581840
C           -0.12351581619077       -1.47279446759875       -0.62063996950419
N           -1.35491434848866       -1.11832153619168       -0.46102251964974
C           -2.15263824967057       -0.13820302586389       -0.30918419960252
H           -0.01131995151431       -2.48502846157230       -1.00053914250723
H            2.37740351508447       -2.59114230043839       -0.14643667286802
N            3.48094604709772        1.81287885959478        0.26532166458261
H            3.04735758748467        2.71880291456119        0.26827245943706
H            4.46522781233093        1.74176806563431        0.45863936390780
H            1.12053792456541        2.59510430114865       -0.77136514342928
H           -4.86490424234178        1.43200367842094        0.72769994145549
