22
 energy: -40.301904905339 gnorm: 0.000562553894 xtb: 6.6.1 (8d0f1dd)
N            4.36111066068202        1.91244482543591        0.52945220635311
C            3.61470758864055        1.06506451232561        0.31757820566160
C            2.69179389055228        0.05112119922637        0.06051309433521
C            2.95604219554661       -1.22138558398414       -0.47841883608288
N            1.87147372696588       -1.97242446705838       -0.61959331454366
C            0.83717041089208       -1.27786454881390       -0.11661950257046
N           -0.28295697902526       -1.84256888338919        0.14942760991590
C           -1.50885201101173       -1.62888090702169        0.45867643225811
C           -2.31096997400473       -0.54915535283876        0.06710268997671
C           -3.69720835614768       -0.56651805690626       -0.04899296714520
N           -4.20321489898723        0.65241757406555       -0.32079244625845
C           -3.19220994803351        1.49325039271371       -0.36102107496104
C           -1.93207481036923        0.85634351998052       -0.14675081519339
C           -0.78069028629945        1.59583183745507        0.04025523424920
C            0.56949591744641        1.29616003096711        0.25366739145459
C            1.28851846795642        0.11954075288226        0.23079871054902
H            1.20485041375035        2.17569662104963        0.31808708615303
H           -0.96269225098362        2.66406677835547       -0.03651682744770
H           -3.35029267647772        2.54119272763583       -0.53971036003471
H           -4.34428157521791       -1.42077816081084        0.02535991227067
H           -1.99100292704444       -2.44397239819633        0.99390795391870
H            3.91922786357083       -1.60286264147234       -0.76856571305951
