29
 energy: -51.161569711275 gnorm: 0.000592957686 xtb: 6.6.1 (8d0f1dd)
N           -0.35820509299618       -4.32537605233478       -0.38398482163800
C           -0.25796557033583       -3.18653504869148       -0.28050724837414
C           -0.19079265148169       -1.77360117563557       -0.16931620414341
C            1.10830239101027       -1.25732836261630       -0.14323901018508
C            1.53240577833106        0.17049393195222        0.05198466827899
N            0.95711029284372        1.26203172854520       -0.28061153137513
C           -0.19788195425481        1.73370670898582       -0.69540844483769
N           -0.10053567425014        2.75945170638629       -1.56979251659948
H           -0.91911440516166        3.27582643989541       -1.83485110745261
H            0.81101697116917        3.11729342397359       -1.79883170446936
C           -1.46447169206253        1.39357430193876       -0.17566291032078
C           -2.52370190268767        2.28410024576874       -0.04565321578137
C           -3.64509556534478        1.61687737895106        0.45686214919166
C           -3.33708029173110        0.27267713581878        0.60102458283002
N           -4.21296574824538       -0.70025469458871        0.99907169731254
H           -5.06664112024330       -0.37642776808410        1.42288495334113
H           -3.83904324135494       -1.54718580845611        1.39380789161452
C           -1.96433351220996        0.06554159259135        0.21879087919802
C           -1.45674168569995       -1.20530556216400        0.07898299725197
H           -2.20859536234556       -1.97963750353710        0.21599878188231
H           -4.59624591724866        2.06690403910924        0.67289555214083
H           -2.48061520475335        3.34147231943787       -0.23636837768715
C            2.89828589888380        0.12307664335096        0.47847823492621
C            3.66851092052468        1.23855271617221        0.80042613714812
N            4.30010902009053        2.16082731901423        1.07201614602050
C            3.32577024890841       -1.19969092602792        0.37659311879215
C            2.26402379606323       -2.02237257241268       -0.01408226468451
H            2.31859705203324       -3.08882938112192       -0.12911107866677
H            4.32824107505014       -1.53472795952210        0.57690533618686
