28
 energy: -52.237143403355 gnorm: 0.000470909318 xtb: 6.6.1 (8d0f1dd)
N           -6.10886128874981       -1.07581646484377        0.37619371615548
C           -4.98680829011059       -0.91876786179096        0.19333734722392
C           -3.61868038657950       -0.71719715212689       -0.03492589149562
C           -2.66475221635059       -1.70295539815287       -0.27579509623495
C           -1.39729973650245       -1.10718245894553       -0.38526050697252
C           -0.30177730843590       -1.92532761899082       -0.65820745691603
C            1.06868051643101       -1.77746601446330       -0.60103612597681
C            1.88885640399789       -0.74896963066142       -0.15599074988063
C            1.66943045301884        0.67931514949551        0.16886825479827
N            2.82843920794731        1.22805212492456        0.61078389699762
C            3.75791939171096        0.29516714498326        0.57844820727825
C            3.26533154899065       -0.93249736045650        0.08466303581713
C            3.99023212346362       -2.11370594505345       -0.08226313990418
N            4.58272087479213       -3.08723038655841       -0.22736778653956
H            4.76158987938379        0.50285857659386        0.90251070821460
C            0.63319436050155        1.57287464646971       -0.04153531805682
C            1.06790036237094        2.91423971829731        0.17142015584958
N            1.34492952682722        4.01873301683977        0.31078732060594
C           -0.74734978653805        1.46366322252110       -0.39848987576493
N           -1.32429944452184        2.61616592429300       -0.78590243816023
H           -2.30005439947560        2.63864002515847       -1.02548605388168
H           -0.80464928983041        3.47977043596244       -0.77423533572590
C           -1.60716750760873        0.34815149448860       -0.26510476016885
C           -2.97779266276269        0.53438993528434       -0.07072904760669
H           -3.48590610618117        1.46304609045530        0.11697671384902
H            1.62601028816364       -2.67450732380309       -0.85413526162758
H           -0.60824246693395       -2.93705534016848       -0.90543118799725
H           -2.85868175371742       -2.75771787084995       -0.32776757488144
