28
 energy: -51.429110196585 gnorm: 0.000558703591 xtb: 6.6.1 (8d0f1dd)
N           -4.60006952892659       -1.18545496213354        0.07441425276206
C           -3.73541229578428       -0.42871869083984        0.08765547271351
C           -2.73730709392039        0.54461666918020        0.16057757430908
C           -2.93756687033129        1.83496599159668        0.73359429476059
N           -1.85768142385823        2.57663066282853        0.75842634443578
C           -0.87313820231991        1.84926045772131        0.16731038916234
N            0.18244033573081        2.43040908867560       -0.25859443418703
C            1.37296400701557        2.12336509267490       -0.69409788010127
C            2.16818759323086        1.06820177290535       -0.28997571909087
C            3.57212761662916        1.20244320873862       -0.16283397185457
C            4.07411178560119        0.08846302343749        0.46064193078383
C            3.02320119727192       -0.83768834307164        0.65542106048200
N            3.21588103521046       -2.08753992076452        1.20724160184068
H            4.09891097860662       -2.19115078257656        1.68583096401992
H            2.43758080202075       -2.46962845186949        1.72503769394995
C            1.81661133570604       -0.28262999926700        0.17703949966216
C            0.70069203602656       -1.07080159131494       -0.20096850442143
N            0.92974354899529       -2.40496217335311       -0.28410833421322
H            0.19540673573955       -3.01517038818190       -0.60666299168028
H            1.87839027336728       -2.73990621451125       -0.31519949066757
C           -0.65476900435327       -0.69386408220202       -0.46194018874990
C           -1.46068166122204       -1.73382383830820       -0.98324841850742
N           -2.05266475947551       -2.57935102173354       -1.49014939055247
C           -1.37002718689103        0.45985542279551       -0.12322975522790
H            5.09646212341679       -0.08305043451478        0.74408827026283
H            4.12052295019730        2.08488887749260       -0.43257072511191
H            1.84526923862114        2.92368248073092       -1.25793195306325
H           -3.86770668090641        2.19846098566381        1.13434101798478
