31
 energy: -55.407385301517 gnorm: 0.000937319772 xtb: 6.6.1 (8d0f1dd)
N           -3.91079200958039       -3.69117943466785       -0.38548149220610
C           -3.55777458035559       -2.60351690664828       -0.26450998432854
C           -3.12251682279305       -1.28390512113388       -0.12218724087652
C           -3.95564089943940       -0.18646837060322        0.17804023657103
C           -3.17872341922446        0.95312010058259        0.24679529062193
C           -3.62264052319910        2.25227699178008        0.49490456766662
N           -3.95160980614354        3.33784770578186        0.68696366317880
C           -1.80063783219708        0.60882391434848       -0.02765023342031
C           -1.78114598506944       -0.85296431178039       -0.22144898389270
C           -0.75324476344100       -1.76313704809005       -0.41448594772064
C            0.62874374420907       -1.68557002567847       -0.35063528024581
C            1.57520221220485       -0.68317342607108       -0.19914243395547
C            1.54872862780737        0.79425036693322       -0.33743820578308
C            2.88067873181131        1.22296710602197       -0.27941751666686
C            3.72383206454936        0.12903856984945       -0.06056224512235
C            5.10909159770570        0.16949300887278        0.11675780453247
N            6.24771428038424        0.17311371216668        0.27431560672981
C            2.93986626536978       -1.04317416095280       -0.02766967756868
N            3.46115502729304       -2.29345607824028        0.10881309865956
H            2.87113488723820       -3.04459865313676        0.42172145105078
H            4.43028571873931       -2.35202892530392        0.37558818641324
H            3.24189420717155        2.23492361755628       -0.30040796154379
C            0.50164022657421        1.71062711602186       -0.50787536015235
N            0.83351415204557        2.95578443257958       -0.92031805198078
H            1.77019852535918        3.17456546151652       -1.20762318169872
H            0.13620767748761        3.67804960998853       -0.97286352756298
C           -0.88692733619849        1.60297862736158       -0.18821903213021
H           -1.33514325093150        2.58956528310452       -0.07635535653440
H            1.08578768245006       -2.66812147653951       -0.41826129688350
H           -1.12472598193330       -2.77339631885973       -0.55969749585066
H           -5.01937682399471       -0.23803232886057        0.32607683309919
