28
 energy: -51.460242999257 gnorm: 0.000967100616 xtb: 6.6.1 (8d0f1dd)
N           -0.36202800543750       -4.30416292454618        0.08551023081737
C           -0.13443465052694       -3.18123102672686        0.04843349475867
C            0.22001306127935       -1.80442744914614        0.03170930028620
C           -0.87555159631307       -0.94842560126156        0.10695242636488
N           -2.10836287477304       -1.45182289456072       -0.00699900056275
C           -2.94767510375030       -0.42551921166103       -0.20906391637917
N           -4.25155905625674       -0.62160772783614       -0.39694604798021
H           -4.60824730258774       -1.56100109112115       -0.36103705724916
H           -4.86319052046977        0.15217293313428       -0.59065991265424
C           -2.27842123958165        0.83593317270783       -0.18854862764654
C           -2.89544733925357        2.07286067335099       -0.33651098807918
N           -3.44917149501112        3.07245030516339       -0.46952720744600
C           -0.93768524258960        0.55198594979230        0.10726651279040
N           -0.07052611563046        1.43222414235166        0.50290556780787
C            1.20691057809561        1.56620253879929        0.67941877959404
N            1.57326132594595        2.49819589482463        1.58363702616105
H            0.86012917280263        3.04653187395468        2.03399493143797
H            2.53818229388151        2.75653585194870        1.68162247969579
C            2.25652231278782        0.93355298103796       -0.06844618299812
C            3.43198325719078        1.55433139120003       -0.43136995218398
C            4.30056267156841        0.60240234577708       -1.02296696336760
C            3.69647483575300       -0.61991367485202       -0.97670993631469
C            2.38123518931493       -0.47846456002538       -0.42442157450606
C            1.58035051822345       -1.58384891044510       -0.25750960143945
H            2.09863607137012       -2.51491007165685       -0.47686787304039
H            4.09859375867241       -1.55033501238375       -1.33161523268461
H            5.27859971079415        0.82147905600192       -1.40967920772050
H            3.65402874870397        2.60141016037557       -0.32343234046090
