29
 energy: -51.172267739944 gnorm: 0.000847607533 xtb: 6.6.1 (8d0f1dd)
N           -3.42291098377879       -3.33653089822616       -0.01870616053554
C           -2.85338475366692       -2.33661504104458       -0.02738708455838
C           -2.21872306169682       -1.09580256879949       -0.03662262846748
C           -2.92370100697869        0.14062080214194        0.02713342379415
C           -1.97101518898720        1.17085700582719       -0.01122464902776
C           -2.27850059609580        2.52863287241046        0.01529617548652
N           -2.54957510900777        3.64768736368168        0.03392225998897
C           -0.65832112627335        0.61312406960446       -0.08773609122207
C           -0.83423114859109       -0.85528599622649       -0.10126375907697
C            0.05213433732297       -1.92393154629100       -0.18042281771926
C            1.42751350244334       -2.03892725852626       -0.18111207595244
C            2.49658864173458       -1.15759137769114       -0.09012097694314
C            3.80562347944004       -1.67632818430976        0.03637848325570
N            4.72591991401059       -0.73147642723441        0.15393234383081
C            4.08605753764426        0.43732220798517        0.06560838346475
C            2.69514403872946        0.29549200418478       -0.08443178480183
C            1.82414678055607        1.39167485987605       -0.23187116150205
N            2.40536486041641        2.59926693544424       -0.41461372010471
H            1.84551895205315        3.43186063516115       -0.47843980166745
H            3.40227293850783        2.68435755766056       -0.48257249462770
C            0.41159298807046        1.46764357170995       -0.17674304983655
H            0.07786802260658        2.50427644800318       -0.20596925906165
H            4.66406076906954        1.34014740743737        0.15945603203647
H            4.07653215177008       -2.71586998821515        0.06936170755439
H            1.76486077927955       -3.07059189320014       -0.22254850277718
H           -0.46591973479229       -2.87797276627646       -0.22077459772673
N           -4.25282474194293        0.27508754263691        0.10595181493127
H           -4.84232951373103       -0.53940555194517        0.12562116125653
H           -4.66806274881151        1.18996040592077        0.14605644561018
