32
 energy: -52.721489086369 gnorm: 0.000567460881 xtb: 6.6.1 (8d0f1dd)
N            5.30345024583790        0.07701925011519        0.48469788136242
C            3.97375356380113       -0.01632795564414        0.26015435817604
N            3.21510104640644        1.07528513911714        0.14932566877645
C            1.94792716528000        0.65073441933891       -0.08491741840651
C            1.91913482801566       -0.83940128757868       -0.13438776703469
C            0.91891709057850       -1.75340659475627       -0.45440135555379
C           -0.47013230424480       -1.73457436369265       -0.46795684215797
N           -1.04664364469541       -2.92532484069697       -0.82317897176777
H           -0.46600442664339       -3.63684287026280       -1.23133910108003
H           -2.03296128739859       -2.94203471810656       -1.02045528648965
C           -1.39193992894779       -0.73256916559735       -0.05544361219817
C           -2.70577383723362       -1.03181666316157        0.33116993919976
N           -3.45059281712940        0.06938840733396        0.55498263765115
C           -2.68629000359800        1.10996009176329        0.25485931815743
N           -3.20816918691606        2.39691131942674        0.37395256160483
H           -4.11830837726373        2.34694429145387        0.81632129014583
H           -2.59511107813805        3.03645590619715        0.86541192036969
C           -1.36047094284738        0.73062107904234       -0.11177582955156
C           -0.39035340635640        1.66988652979843       -0.47344750478476
N           -0.85035379999336        2.90335817186713       -0.83753234568946
H           -1.81605058994885        2.99753821267324       -1.10579400625252
H           -0.18910019797791        3.58028348780006       -1.17625628441399
C            1.01894641031512        1.61500158268470       -0.35672954411564
H            1.48617318904006        2.59336100046834       -0.43300296094349
N           -3.30093133612784       -2.28018168679300        0.52269152800456
H           -2.72394638027125       -2.92550626550568        1.04790944126045
H           -4.20633281400081       -2.15540248502085        0.95874397469419
H            1.32733104307096       -2.73621283767363       -0.68217633331325
C            3.24044227167777       -1.20777211714073        0.05791658653435
H            3.64033542665842       -2.20372890294100        0.07877490326401
H            5.80816138986315       -0.74158977045787        0.77537112568619
H            5.65616142178578        0.97656824734858        0.76278001646750
