29
 energy: -50.364549087970 gnorm: 0.000658429503 xtb: 6.6.1 (8d0f1dd)
N           -4.72028341258302       -1.22051256857232        1.19577727047777
C           -3.93012305940448       -0.49276442823147        0.78381075231334
C           -2.98104677484816        0.39908414279611        0.29264681147338
C           -3.16651191968843        1.77912406748970        0.03005730792052
N           -2.10788814399554        2.37252701587391       -0.47487862702935
C           -1.11044468982937        1.43950726648326       -0.51450180593852
C           -1.67485684410785        0.10680396334975       -0.13683210400237
N           -1.19955703521950       -1.07923480483855       -0.35981615520769
C           -0.04289883596415       -1.62330858836738       -0.60050934003183
N           -0.08513882433025       -2.77176643906751       -1.31508653313971
H            0.73167582069086       -3.35284988319476       -1.37125251418915
H           -0.98507214693512       -3.16361215187747       -1.53620904410128
C            1.22008590520725       -1.24385560459125       -0.04594150173174
C            2.13826087875994       -2.17761766405804        0.40696923784351
C            3.28989830963611       -1.51892032879645        0.85838608534680
C            3.13962109715640       -0.16805385802956        0.62557205124336
N            4.10408718569751        0.80954750979280        0.92230927182009
H            4.88063019913566        0.40193148202468        1.42947989406209
H            3.72583570915323        1.59395678677241        1.44196241449691
C            1.84269585468113        0.07302364156509        0.05897924947166
C            1.46392509639060        1.31265178623125       -0.47412521734540
N            2.45727210792483        2.20897448084668       -0.69104587774668
H            3.41660268192292        1.90699035504052       -0.61496183320232
H            2.24776598246533        3.10609062850194       -1.09075102722128
C            0.16654093693427        1.86014299500328       -0.71762460276389
H            0.19769366132193        2.91736737289665       -0.96857083735455
H            4.15188500698333       -1.98907122663055        1.29568747590975
H            1.97423754678131       -3.23810830958494        0.47507743323335
H           -4.07449752253798        2.33188662427286        0.20113370959339
