31
 energy: -59.424710164449 gnorm: 0.000986174161 xtb: 6.6.1 (8d0f1dd)
N            6.28197328556736        0.61531328660735       -0.68305406395658
C            5.17417834774525        0.40822332923326       -0.45285090955576
C            3.82243258947366        0.18814504905561       -0.18760178422919
C            3.21239392784464       -1.05553150906123        0.09634964083059
C            1.85193874764250       -0.87377945629225        0.24904722213589
C            0.94339380514734       -1.89628108005904        0.64818076671286
N           -0.25848979017376       -2.07231689602155        0.17652312475170
C           -1.29523062323578       -1.43160014683052       -0.22179510333959
N           -2.28082368311107       -2.07665428381315       -0.86665911437366
C           -3.34245250055522       -1.27509445478459       -0.84458715532071
N           -4.51113123909061       -1.61893703691011       -1.37624741495312
H           -4.59664397518222       -2.50841531477242       -1.83732492560145
H           -5.30095872019844       -0.99890731419042       -1.31002814617612
C           -3.07391390512387       -0.00955117350056       -0.19884205129428
C           -4.05020955564627        0.97575548074010       -0.08919575888081
N           -4.94493136584091        1.69833365405081       -0.05344255457062
C           -1.72121917122422       -0.03143015511675        0.13236529354923
C           -0.93541577060142        1.06995696421196        0.49407556228851
C           -1.65526572628207        2.24186478670898        0.84245539154962
N           -2.17024748889473        3.21381125066695        1.16995080329709
C            0.44443965815638        1.31219406764543        0.38158563707716
C            1.56707202961858        0.55579598610732        0.11700886784467
C            2.83621358146069        1.18270372553599       -0.14282629698088
N            3.06807942553536        2.50788225931285       -0.30648547188551
H            2.30645738534543        3.13818928010555       -0.48662995974678
H            3.98116210516096        2.78605166740932       -0.62399909110670
H            0.66054045768768        2.37317111044491        0.48962006903863
N            1.39411968518514       -2.85923905081948        1.47441760610006
H            2.34432996898408       -2.84669185050881        1.79928356368441
H            0.80370873520272       -3.64781299860224        1.67679935625579
H            3.73773880540100       -1.99305072825279        0.12447799535466
