27
 energy: -46.922618669417 gnorm: 0.000953229396 xtb: 6.6.1 (8d0f1dd)
N           -3.06198846084480       -2.60267465925945       -0.72433639799098
C           -2.21848096265514       -1.86399720432935       -0.46943927930189
C           -1.16963733240221       -0.95422163981495       -0.19604609384197
C           -1.63853326849166        0.33581835186341        0.07695472928799
C           -0.90414228968881        1.65675755461201        0.15381752351452
N            0.22322338248660        1.97251625379457       -0.38242496632482
C            1.35134119890538        1.40819699817129       -0.70586324293286
N            2.07845332060848        2.02127098242534       -1.66024555342220
H            3.02892010699335        1.73627475340401       -1.81682813355982
H            1.75055981135593        2.89473256733625       -2.03755637138404
C            1.93903325275093        0.32105624073192        0.00458900018079
C            3.26975712479584        0.29027848954815        0.41371774980183
C            3.51680196638480       -0.93254652005560        1.03884194966298
C            2.37527903057281       -1.70974080653173        0.94735530488514
C            1.34524790892875       -0.96070096013789        0.33959208504813
C            0.11704805630627       -1.54747662165078       -0.05595551397673
N            0.15447358673305       -2.88970072297372       -0.24184700046782
H           -0.69488962637748       -3.41709007315256       -0.35895853659746
H            1.01980521839639       -3.37947725190443       -0.10368461737650
H            2.27319201655999       -2.69548238581846        1.36605672579051
H            4.44353003149393       -1.22767480019270        1.49549951242212
H            3.96678817039107        1.10392073371141        0.32448084714396
N           -1.71713710061517        2.60009005915571        0.64819491369259
C           -2.90889586920187        2.02483538774418        0.79769330671392
C           -2.94241415929257        0.67961851824911        0.41457565325251
H           -3.79246546667303        0.02737177749564        0.45925594129355
H           -3.73112226742004        2.59739581027831        1.19101621368693
