29
 energy: -45.548662322930 gnorm: 0.000645930021 xtb: 6.6.1 (8d0f1dd)
N           -2.84775443461769       -2.73078313320693       -0.09712363315550
C           -2.43871629441352       -1.43278269039036        0.07829399031056
C           -3.20741301657499       -0.39961423312039        0.51369916200208
C           -2.41911586022128        0.79701994595115        0.47679823770301
N           -2.87834572434002        2.00278700148880        0.89152356662988
H           -2.29039289615245        2.80807591019593        0.75718321974923
H           -3.85763298599408        2.12598328439745        1.07096057241127
C           -1.12461170758890        0.49104759568161        0.06820392517461
C           -0.14771260020964        1.49611494794033       -0.28287691774525
N            1.12269458601740        1.52821923996366       -0.15766018577796
C            2.09643987388382        0.66261678508747        0.14308749257989
C            3.28897959152488        1.04028754429996        0.69801947669586
C            4.21173783420633       -0.04994840792104        0.62054043783334
C            3.61739865957800       -1.10343960277101        0.00374674552945
C            2.24053554341338       -0.76671910820690       -0.25484365993265
C            1.33178679966550       -1.72312570148546       -0.58491319764521
C           -0.08435122844476       -1.79401090305781       -0.55831113667947
C           -1.07257431466325       -0.93189282964731       -0.17838092145639
H           -0.43579556481628       -2.79447089677321       -0.79362814242121
H            1.78517136335723       -2.68936610955161       -0.79578567071684
H            4.05384523274917       -2.06104859851956       -0.21507685325827
H            5.22435237266106       -0.01247062808929        0.98376423052083
H            3.50559992349251        2.00676706708838        1.11150949503230
N           -0.69924486687226        2.70125359591754       -0.73408521435175
H           -1.47875706754089        2.60160456488286       -1.36810025479683
H            0.01351525837977        3.33487268466356       -1.07014613028115
H           -4.23870967538145       -0.44449483065828        0.81274784281467
H           -3.69621255893909       -2.98170314920229        0.38563030482324
H           -2.13686917495847       -3.44396599715818       -0.07388091559168
