26
 energy: -47.207000250743 gnorm: 0.000614483318 xtb: 6.6.1 (8d0f1dd)
N           -2.16357361402067       -3.47289432702896       -0.28337915037007
C           -1.52661546782169       -2.52344871177584       -0.19602279488706
C           -0.67571353172496       -1.38694670478085       -0.12496912488219
C           -1.37016244769916       -0.17235852263340       -0.10651631346014
N           -2.68440521815946       -0.18818929499647        0.06190529726184
C           -3.06755991520077        1.08257291310614        0.34904225707001
C           -1.99178092412256        1.98690052897292        0.33685202710713
C           -0.87421787441942        1.25838175404102       -0.04274489909202
N            0.24840884628339        1.78332651928345       -0.44623391618906
C            1.47738883806675        1.43094013934740       -0.65866265125297
N            2.16882440548213        2.19567136331770       -1.52976381473337
H            3.15521972163137        2.05502252738496       -1.65290290178137
H            1.71551318553724        2.98326653223467       -1.96000316484982
C            2.21306125565158        0.40391545668404        0.02105739904168
C            3.54516604417461        0.47211998531607        0.37906705202083
N            4.01051265415580       -0.70499214558316        0.87235302643238
C            3.02291124218150       -1.56026714967981        0.79272311567201
C            1.81448863126815       -0.96515567760892        0.30090418629009
C            0.66772599760492       -1.70695710688654        0.11346733118118
H            0.82370778793840       -2.77442305872704        0.25265651818394
H            3.13540583175085       -2.57884725637876        1.11673817768348
H            4.19437152344187        1.32945510688177        0.34753403903647
H           -2.04326105099085        3.04383979867250        0.49935939048261
N           -4.35371507399520        1.34077521954677        0.59442668520974
H           -4.65685970841995        2.25368734898049        0.88131340398788
H           -5.01011255059475        0.58103691211064        0.54069116383489
