31
 energy: -53.810504589264 gnorm: 0.000504737092 xtb: 6.6.1 (8d0f1dd)
N           -4.30209125682764       -2.27558577262165        0.66699750995393
C           -3.68178736350966       -1.32613290928545        0.45316369847072
C           -2.95287838498478       -0.17504769702526        0.19832260993752
C           -3.48070290128192        1.02814626364670       -0.30279538462777
C           -2.43254160033258        1.96723814598318       -0.43815058415119
C           -1.24639762519635        1.40695204305721        0.00208144727566
N           -0.17939913341069        2.13471149546819        0.23788628679278
C            1.08158522057410        1.91732131507056        0.43574533760297
C            1.92959740893557        0.85834117701719        0.11908852316836
C            3.32356007023129        1.03635267266874       -0.02776727731130
N            3.96093677181150       -0.10991347596651       -0.33533961464625
C            3.03997611469305       -1.06843418666835       -0.33465958509128
N            3.42017891607505       -2.37080373088645       -0.60248460535717
H            4.39263967772150       -2.40366834437729       -0.88206452004404
H            2.81620937514492       -2.86168314328904       -1.24902040862430
C            1.72451166081076       -0.58680307600962       -0.04320385617292
C            0.65960994652449       -1.41645320714068        0.30043289570916
N            0.92963832291461       -2.75034406240945        0.43187633233104
H            1.88656652042227       -3.02524340437872        0.59249439472577
H            0.20986038397509       -3.33975008671962        0.81608870421898
C           -0.73249388828738       -1.12685762463851        0.44605046507153
C           -1.53184714815037       -0.03401467794898        0.30660118481272
H           -1.31041507737880       -2.03707161898894        0.60241492133744
N            4.04038903980905        2.18741630720360        0.09732424619702
H            4.97861439739778        2.13963373253814       -0.26481816943217
H            3.55986310468024        3.06213031004176       -0.02496190187005
H            1.58797072153396        2.80392003902277        0.82077809485924
H           -2.55003126294130        2.98108684153076       -0.76957177048560
N           -4.77108883372154        1.24188928096469       -0.61480161260497
H           -5.07299650156465        2.14605491001394       -0.92928167278229
H           -5.45973699426556        0.54387350542750       -0.39381099336095
