31
 energy: -59.414909060474 gnorm: 0.000884881747 xtb: 6.6.1 (8d0f1dd)
N            6.14094645221025        0.47029926902519       -0.80037102091123
C            5.03534428094501        0.31494268208403       -0.52544368783304
C            3.69045453274742        0.16899323551226       -0.18110348163875
C            2.89871406296270       -0.96297255608254       -0.35130151890805
C            1.57765555215521       -0.69353396467146        0.06021501660639
C            1.57945188083323        0.69001031606739        0.54294009277549
C            0.56921622661682        1.43988704067254        1.16159237152183
N           -0.69075856108403        1.50209382234184        0.90499336833984
C           -1.58979179246673        0.80935019056731        0.26863827338255
C           -2.78700377209503        1.32911372627409       -0.22881920145641
C           -3.18622371343739        2.65449722055514       -0.35593834750266
N           -3.56808310085947        3.73184565204922       -0.48835206596062
C           -3.61178842718298        0.19230989126563       -0.53738123851131
N           -2.98326567223445       -0.96204177452066       -0.31782810063120
C           -1.73371086064364       -0.67326314175316        0.08446606822732
C           -0.80287980489541       -1.69561490082728        0.13930208822830
C           -1.42431288854483       -2.96077504687914       -0.03895073599745
N           -1.88736828160389       -4.00521140487605       -0.15362220788663
C            0.63368195424427       -1.73554332724703        0.17952009293523
N            1.14189239375669       -2.98688825692825        0.24134022446305
H            2.13562142831141       -3.12892970944743        0.24465773888041
H            0.53616041094616       -3.78913622863464        0.17884103054161
N           -4.86181974655871        0.24330378009568       -0.98963036118152
H           -5.29947059132291        1.12753751936120       -1.18372563996566
H           -5.35996793592466       -0.61763558913320       -1.13769927817826
H            0.89153285089737        2.19066362780077        1.88209955238105
C            2.89588150996232        1.17831528514157        0.42443790413287
N            3.36280737654119        2.39698330838101        0.79653007725267
H            2.71387320671992        3.13392281388158        1.00785987168917
H            4.27211297053181        2.67091485916536        0.46379215169481
H            3.25468138967446       -1.86508156414022       -0.81612378329000
