35
 energy: -62.286887873457 gnorm: 0.000979837021 xtb: 6.6.1 (8d0f1dd)
N           -6.00071727218806       -0.47078259262332        1.04655472858825
C           -4.93117295640593       -0.30089438552829        0.65569499574945
C           -3.63064736101205       -0.09371855525650        0.20627700202406
C           -2.56478742212381       -1.04836420173279        0.29953341436069
N           -2.76677213847296       -2.31590137680528        0.79374511844633
H           -1.96615003538966       -2.77237601198530        1.20344447817739
H           -3.62130517679314       -2.42931017798304        1.31950227892926
C           -1.38882962128425       -0.47461479790319       -0.17859721187259
C           -1.70849110539119        0.89537908343195       -0.58291654978580
C           -3.13249364780464        1.06127374428731       -0.38100904717468
N           -3.87929983248687        2.15780249438672       -0.68045026462414
H           -3.42234052570907        3.03777352863542       -0.84382265292241
H           -4.79980050938757        2.20386863169646       -0.27471447745027
C           -0.96122388665748        1.94830602828310       -1.05194328411933
C            0.39464470108240        2.28667718932498       -0.99195030001568
C            1.50177537541730        1.68812262074124       -0.43385384184249
C            2.66594607228804        2.44001576713251       -0.14792714065013
C            3.60866429152785        1.62581295722700        0.44012700280945
N            4.81864003222365        1.94607581246662        0.92794070566577
H            5.39861528957340        1.22957516468403        1.32913948728303
H            5.16011406534093        2.88862316287048        0.87829578092325
C            3.07560205051188        0.27556702343412        0.46580574280411
C            3.78804645564880       -0.77732253979052        1.03601428273696
N            4.43447392051723       -1.55854211158856        1.58135519089107
C            1.79588415530183        0.28425424792496       -0.06695716500185
C            1.12343072089981       -0.92063565697320       -0.41021475910569
C            2.01489123982171       -1.98085931094200       -0.68435057489933
N            2.70128574415407       -2.85149560644992       -0.99401441655757
C           -0.23345969050713       -1.26397165052434       -0.48412870997420
N           -0.50672114414364       -2.55956075004342       -0.78619332928655
H            0.24498158131449       -3.18233650412985       -1.03365029124637
H           -1.45273825077873       -2.83779400714636       -0.97666417848927
H            2.76096271484823        3.49770093698955       -0.30704043838411
H            0.59356670573424        3.30014814398102       -1.32721724852444
H           -1.56268408746911        2.76172307850938       -1.44665667306306
