31
 energy: -54.606706986325 gnorm: 0.000566410115 xtb: 6.6.1 (8d0f1dd)
N            2.30392573244142        3.62140894541455        0.06059298926757
C            1.85466086490368        2.56570855995261        0.04227856756023
C            1.20969824343626        1.30076139779756       -0.01149211595100
C           -0.17884306054603        1.41100746973801       -0.14783555043962
C           -1.24881747960284        0.54808921239385       -0.16030126028211
C           -1.40980052513436       -0.90991279522477       -0.31856576811559
C           -2.76898023532386       -1.17185957717313       -0.23913043912124
C           -3.48581879967039        0.02725816811822       -0.03208591332229
C           -4.86405257707898        0.14591622444710        0.14513168456554
N           -5.99712421581731        0.27097901682266        0.30114482726754
C           -2.57434202704215        1.08670864474260       -0.02146735272914
N           -2.92951688050687        2.39709844665326        0.09174047388017
H           -2.24578253213426        3.07493664327703        0.38267668382205
H           -3.87777486655581        2.57957081564290        0.37802959832574
H           -3.25002964806527       -2.13299209597100       -0.25484611874913
C           -0.48134343092070       -1.94393768722981       -0.62763506278178
N           -1.04353521709229       -3.07530427487512       -1.14311082804515
H           -1.98356111043591       -3.05955540968260       -1.49141399422331
H           -0.45688019320552       -3.84851622732229       -1.40151978451337
C            0.89083371815230       -2.06113006107992       -0.39641930516726
C            1.92169778705544       -1.24715258661310        0.04594015868308
C            3.19385987912535       -1.74628323689683        0.32062794734653
C            4.01119281307065       -0.64662098836552        0.62221136668263
N            3.33930578175081        0.52370891495496        0.51428981151772
C            2.08379486039980        0.23073403023457        0.18798131061420
N            5.30171418549409       -0.64554696383248        0.97615830667829
H            5.82207727904598       -1.49969050448613        1.05501445208363
H            5.74550239921499        0.23814263528067        1.15425041176150
H            3.49427672392478       -2.77580851000742        0.31988115359527
H            1.24699539104748       -3.07196191833754       -0.58684518001044
H           -0.47730619892714        2.45635150382561       -0.18431671099796
