30
 energy: -50.079585481233 gnorm: 0.000926282790 xtb: 6.6.1 (8d0f1dd)
N           -2.64145746168203       -3.44373988891369       -0.36186669329400
C           -1.94758772642229       -2.53175114856946       -0.27729069431880
C           -1.05691452866466       -1.43362531721860       -0.16744246619441
C            0.26234069516922       -1.83656725159742       -0.14927577762381
C            1.50454302304221       -1.20353884096458       -0.11963198400765
C            2.66274672504856       -1.97438479951376       -0.27754854547682
N            3.78392982763783       -1.24737829163495       -0.27321204020455
C            3.41494586019498        0.01382859479412       -0.06872764163000
N            4.39174027530764        1.00991938132188       -0.00213904277079
H            5.30030024833717        0.58301622801342       -0.14936145159889
H            4.24288517607300        1.76292661905680       -0.66553880309833
C            2.00017259779566        0.16245993737957        0.06643531884715
C            1.38639968414349        1.35374565608324        0.45552476922743
N            2.21615429484470        2.35697535817475        0.85346786988424
H            3.17413807683523        2.12224494954503        1.07173050632007
H            1.82017748265607        3.18489337963743        1.26417281817496
C            0.01898101219514        1.74827340319936        0.42990167234426
C           -1.20314011577791        1.20640657313398        0.14523932397494
C           -2.34256157882784        2.05234280553848        0.12122592882878
C           -3.46540562872017        1.30628435518638       -0.16303237944957
C           -3.06532342285245       -0.06425248117971       -0.30151462663718
C           -1.71134523073152       -0.17137659305485       -0.12826737114156
H           -3.74222742540909       -0.87217214500215       -0.50917746211827
N           -4.73945832858315        1.73246027807486       -0.27296832852982
H           -5.45732331886326        1.09252202217850       -0.56038352072098
H           -4.94978480404119        2.71345955836608       -0.23775732319582
H           -2.31586667616004        3.11404600916400        0.28129142817011
H           -0.07173920879557        2.80753049981037        0.66720289066875
H            2.70871478529856       -3.03774152421843       -0.42670086616798
H            0.37183717905341       -2.91693834249259       -0.22034977276164
