29
 energy: -51.163504432785 gnorm: 0.000600898788 xtb: 6.6.1 (8d0f1dd)
N           -4.27214709270802       -2.95908613963505       -0.20392547728292
C           -3.65001543321797       -1.99607711116388       -0.11821782395592
C           -2.89667730252408       -0.82396209003150       -0.01452326770974
C           -3.44337720104347        0.47997875175503        0.00885937295202
C           -2.41409589579244        1.38529564097555        0.13162848027448
C           -2.52958013263817        2.77391898810163        0.20073787923887
N           -2.58723896988967        3.92122529256935        0.26557299896653
C           -1.14705402425589        0.67357317775097        0.16692176921698
C           -1.49316653246015       -0.76061882508666        0.08492265269132
C           -0.73502643829778       -1.92536786082979        0.14754698090128
C            0.61829896232870       -2.19091935517885        0.20882213660967
C            1.78258611029731       -1.43571761409085        0.12980370159105
C            3.02216269476308       -2.09320151139590        0.08094911287393
N            4.05105738221074       -1.26548715732097       -0.09079594741707
C            3.55208092795061       -0.02948642215103       -0.12101050303694
N            4.41213935146248        1.04968911991524       -0.28823586894610
H            5.36197868431803        0.70788646667576       -0.38474931802736
H            4.16799430561916        1.65695407476118       -1.06228928412759
C            2.13457040295776       -0.00383875236520        0.04557872940539
C            1.41328126310205        1.16632237446277        0.26289606798006
N            2.12094368367598        2.30374497139902        0.44146471012859
H            1.64508778241473        3.15941142328652        0.67286242541369
H            3.11662646882020        2.23692452663122        0.60208601304165
C           -0.00445975807583        1.39830321752945        0.27571727531016
H           -0.21199823364593        2.46420452112285        0.36343418077678
H            3.18408316057429       -3.15412532938873        0.12913041476271
H            0.84028065179149       -3.25101563599018        0.28571807596573
H           -1.35640539471204       -2.81608217293949        0.14447119933206
H           -4.49106135292296        0.71303335962166       -0.05580082122941
