31
 energy: -53.791432591565 gnorm: 0.000651627218 xtb: 6.6.1 (8d0f1dd)
N           -3.54852302072826       -2.25684239596807       -0.80343879165661
C           -2.68913863536301       -1.53851929445538       -0.54563408068125
C           -1.57578840494097       -0.69203815002277       -0.30521294188282
C           -1.98250614494295        0.58785930788053        0.01964188948444
N           -3.27509308825304        0.81153892977501        0.31666895672523
C           -3.34394981735548        2.04530141911598        0.82210616947220
C           -2.12673613637522        2.72096031566857        0.83529394221873
C           -1.20248004472779        1.86035561127841        0.24282043924085
N           -0.03453989904910        2.19226264623258       -0.21363673471541
C            1.05890518068207        1.60367409715660       -0.60516245418446
N            1.85799986780375        2.37751766940852       -1.40023438975559
H            1.43395699421812        3.19463761496224       -1.80795403882405
H            2.60940909513364        1.93320768889823       -1.89886700887129
C            1.61023119681774        0.39836780965160       -0.09508980168971
C            2.97335749512201        0.23341442778481        0.16917786633772
C            3.19553582989169       -1.08343378326096        0.61308307675569
C            2.00655803295545       -1.77842147756774        0.55239302192606
N            1.86889612395944       -3.12505789720753        0.90000290144982
H            2.68908934080510       -3.46841419425494        1.38298864443916
H            1.02705646832659       -3.32770271503953        1.42445689780768
C            0.95810474960396       -0.89911061193546        0.11698995144367
C           -0.30197570704625       -1.37358301714087       -0.26080573858527
N           -0.39456478108110       -2.70934586415268       -0.49865974570672
H           -1.27852696063229       -3.11569064167311       -0.75305645584110
H            0.44941185666349       -3.24786242270688       -0.59770104818916
H            4.14313517549313       -1.48169127694091        0.92796602991721
N            3.97062886368576        1.18305133781770        0.03696981371837
H            3.65683527136940        2.14032044834139        0.10848900851544
H            4.78804926577712        0.99232965989010        0.59787255019853
H           -1.94720446874369        3.72600263853995        1.15829496179357
H           -4.29229510787007        2.42111992062260        1.16663945283836
