32
 energy: -58.349017625034 gnorm: 0.000693466433 xtb: 6.6.1 (8d0f1dd)
N           -5.91825509535881       -0.18309086525336       -1.17475882558693
C           -4.83913397985323       -0.04423315658480       -0.79933039987536
C           -3.52319238823960        0.07422149212132       -0.35521613302210
C           -2.81924464016633        1.26612488218405       -0.09888277983757
C           -1.51666108643016        0.94725825002400        0.24846567850000
C           -0.54955202073370        1.93777079184223        0.60546772938627
N            0.67516473795246        2.01361962426895        0.17133324739610
C            1.62830270227324        1.21388961714823       -0.17559062402427
N            2.68367971035913        1.66549749300158       -0.85668683882052
C            3.64379407203665        0.73348915672863       -0.74760325518335
N            4.83889647846154        0.89650198664020       -1.31840193859057
H            5.01023527819579        1.72864763990578       -1.85464035270307
H            5.56398453289038        0.21299981767054       -1.18870508916129
C            3.23188320152823       -0.39653524432044        0.01766106929111
C            4.00738546467675       -1.51388744534873        0.28839606869809
N            4.66683332981293       -2.43263279292193        0.51061353164230
C            1.87257777136670       -0.18211089059409        0.32192913448451
C            1.02892742163603       -1.13086372059969        0.84927843605573
C           -0.36952654314883       -1.31533268161295        0.83036746507689
N           -0.76905517361037       -2.51995564055603        1.31058708225265
H           -0.09899476326432       -3.14399413135129        1.72414801005101
H           -1.75170606095819       -2.71157700729278        1.41865351607879
C           -1.39594353613652       -0.50255921702309        0.28636982108852
C           -2.66810764173120       -1.00710830029510       -0.08629912407367
N           -3.05297883047725       -2.34369109932593       -0.18260839512359
H           -2.36502400873370       -2.94455801436466       -0.61906191458166
H           -3.95943405067230       -2.44155049768270       -0.62426873954205
H            1.56087586908295       -2.01162673256749        1.20458319096034
N           -0.98076177448230        2.99100284347225        1.32980784848681
H           -0.37057587557807        3.78321547795986        1.44220298039393
H           -1.95828924649323        3.08271402293046        1.54169445716946
H           -3.22019520330440        2.25419408389777       -0.23325015368571
