34
 energy: -62.576050636862 gnorm: 0.000631093878 xtb: 6.6.1 (8d0f1dd)
N           -1.59766852508152       -4.24464635996626       -0.41255676452230
C           -1.31249122539133       -3.14084188231863       -0.28198556217987
C           -0.86196756956563       -1.80699478697169       -0.09833950775641
C            0.53343574805620       -1.73546089082804        0.08574708884119
C            1.48141897998838       -0.75244303215632        0.15032754605243
C            1.45643334624706        0.72625567396916        0.23837681816137
C            2.77912587504174        1.15791096984013        0.06939085546276
C            3.63812533866087        0.02827814377090       -0.04829353561761
C            5.01367081886276        0.09146147354993       -0.25910530567394
N            6.14635152247130        0.15477446559461       -0.45343570982697
C            2.86997836749074       -1.13089913340673        0.05243641463795
N            3.38921654776406       -2.38063750474213        0.04163524424539
H            4.35597163774423       -2.48307172107411       -0.21699804351778
H            2.79734554668479       -3.18452057034502       -0.07185712315385
N            3.27072067660936        2.44431371099351        0.01701237844663
H            2.66196210443977        3.13611476415394       -0.39513880729044
H            4.22455973043995        2.49884794475759       -0.31352280394035
C            0.42168348098040        1.60740145562594        0.63588427242665
N            0.83993215421743        2.80660440577133        1.13881586766787
H            0.14766371383787        3.43227120464422        1.51540929714164
H            1.77851255935378        2.88915752465029        1.49189451226599
C           -0.97629731251937        1.52051164902320        0.52820809624089
C           -1.90367794962518        0.59444875145472        0.10177565801851
C           -1.87659256413140       -0.86347996795449       -0.18651477792035
N           -3.10349806789957       -1.30296844046079       -0.50081213236479
C           -3.93958768512891       -0.25840977108035       -0.44070917183372
C           -3.26552774408666        0.93336036460432       -0.04963539420973
C           -3.85721551374944        2.17643886400166        0.12059215085042
N           -4.36224181695431        3.20162596379339        0.26910549825650
N           -5.23704196852414       -0.38365016538565       -0.72375165659196
H           -5.58865808711707       -1.28949671100305       -0.98104103377275
H           -5.85710767501268        0.40376297490059       -0.65139571521078
H           -1.45833319719963        2.45637352975381        0.80663024252417
H            0.95579913799884       -2.73732540606635        0.09438550764304
