27
 energy: -42.115083151315 gnorm: 0.000555105193 xtb: 6.6.1 (8d0f1dd)
N           -3.49192391324298       -1.30799717608689       -0.55281156405904
C           -2.73418784664671       -0.16714939589757       -0.37142795371485
C           -3.26633416438002        1.15339920356489       -0.48676881418552
C           -2.28696731329004        2.04350139149751       -0.17131274955840
C           -1.06326084431768        1.33790254507350        0.08704427462612
C            0.06889435394301        2.04178449443260        0.42396697926651
C            1.43711023230091        1.74041865605196        0.53277043893629
C            2.18909121372884        0.62553648304621        0.26460971463987
C            1.78146175855704       -0.76111900068348       -0.16724430541837
N            0.67281938537206       -1.41522429462885        0.07302512913824
C           -0.57507957476407       -1.20276670229707        0.32895988772488
N           -1.23416218735110       -2.29122484276216        0.84768627801104
H           -0.64663447116048       -3.02837834767173        1.20336599292095
H           -2.10958854087760       -2.13125083099708        1.31685049679577
C           -1.39118352042605       -0.08182163336967       -0.02602090396081
C            2.91498670568255       -1.35682035243688       -0.69747723451259
C            4.00361120903899       -0.48478278738402       -0.53101511787673
C            3.58866463339944        0.67858207354860        0.08468661128136
H            4.20557453964065        1.52261657494274        0.33164388933202
H            5.01325583341085       -0.70203611401153       -0.83542947637419
H            2.95402053527716       -2.34348794562312       -1.11712645207845
H            2.04452383031125        2.61516271603157        0.75266942750194
H           -0.13068744379952        3.10192696921163        0.55567442105235
H           -2.37304755833990        3.11431232394301       -0.16468185546915
H           -4.28516891944539        1.37551427432629       -0.74975015280577
H           -2.96768519754627       -2.13795042306737       -0.78802965681613
H           -4.31205668467499       -1.17345936315327       -1.12547633999695
