27
 energy: -51.722355876591 gnorm: 0.000840779278 xtb: 6.6.1 (8d0f1dd)
N           -4.87470236565720       -2.42400786341156        0.45534514007218
C           -4.30965225061491       -1.42737092335374        0.36256949889121
C           -3.62201792393443       -0.21738442459465        0.27670794476313
C           -4.10470875226241        1.06641506098257        0.55852121015770
N           -3.18539509646017        2.00885490957422        0.41028048326992
C           -2.07070150224250        1.46757346620838       -0.07946180566892
N           -0.94893778416480        2.06970179208967       -0.10077039197230
C            0.33267962367385        1.90495776748347       -0.26359650427370
C            1.16160358573717        0.81111114278909       -0.05452787530851
C            2.57564022218517        0.96434112372052        0.10245891419755
C            3.18582125639127       -0.30401528024893        0.04243840214910
C            4.54934073566186       -0.56122388262042        0.15819734586365
N            5.67536077940666       -0.77449882530418        0.26365203072683
C            2.17988655920845       -1.26866756717033       -0.19863810923030
N            2.41413203158627       -2.58307306335713       -0.34057697295178
H            3.35112638778544       -2.93310912582634       -0.23909544184590
H            1.65897344078041       -3.23730862417317       -0.43675862129093
C            0.91510361586878       -0.61792974976094       -0.24224472670746
C           -0.23336508872024       -1.26029004747047       -0.69686304478090
N           -1.47884398129869       -0.96726421811478       -0.49787982331161
C           -2.31762960978002       -0.04362940743980       -0.26198229167175
H           -0.10209391294617       -2.21792666834724       -1.19547633407412
N            3.23715827371089        2.11338159575054        0.31165223999099
H            2.74824389336657        2.98516363076958        0.40355684451697
H            4.23332191305215        2.09533369284676        0.44521985729444
H            0.83032847356514        2.84697241911437       -0.49097071261183
H           -5.10310716909789        1.32189409086540        0.86638842280726
