25
 energy: -42.667959321342 gnorm: 0.000717424008 xtb: 6.6.1 (8d0f1dd)
N            2.99799169121937        2.37878215468926        0.14957791788100
C            2.51919077311539        1.10527417755026        0.14708825975203
C            3.30398496137448       -0.04339797666629        0.25491262096340
C            2.47632320718684       -1.15736804612926        0.13522969952678
N            2.90192463871894       -2.44817778393150        0.13032453943425
H            3.84201289190848       -2.63021930469392        0.43734848940701
H            2.22951846638538       -3.17839535991137        0.28853235295409
C            1.11665063314680       -0.72881726815711        0.00547197008965
C            0.09958232011038       -1.60461645847143       -0.34548906867018
N           -1.19359638324187       -1.54314302448958       -0.20252962313448
C           -2.17207142707913       -0.72652137413767       -0.09421569238583
N           -3.37866015057434       -1.10161452661959        0.31406847169616
C           -4.10909405987845       -0.00517653733373        0.55445527812178
C           -3.39060249369592        1.16836583830213        0.43107661110377
C           -2.12897334509815        0.81715140883327       -0.08678381635268
N           -1.12747768817761        1.60599507009200       -0.19207333640801
C            0.16218088380320        1.64360580024248       -0.34644465113554
C            1.14823657485924        0.73204811371158        0.01251765889683
H            0.50705569167904        2.61683746876459       -0.69350905677414
H           -3.74116284404952        2.17202934135005        0.57169424623826
H           -5.14689567226948       -0.10985338035396        0.81967439453967
H            0.41754053331435       -2.58703108934371       -0.69465906195835
H            4.37311827819327       -0.06437290910591        0.35929905487982
H            2.35603516257998        3.13256417504396        0.32369782821963
H            3.94320850126967        2.51758900376520        0.46394558641505
