28
 energy: -47.451444486481 gnorm: 0.000503212291 xtb: 6.6.1 (8d0f1dd)
N           -0.11353652968771       -4.14500240835091        0.01278422289605
C           -0.25006769138773       -3.00552078834735        0.00994803786737
C           -0.47492582746312       -1.60089463425122        0.00608848992117
C           -1.83621257150732       -1.31994696729697        0.00487889232878
C           -2.63047183023900       -0.18246257326301        0.00200063218521
C           -2.34805459680428        1.27198160028287       -0.00070220600530
C           -1.19272831525576        2.02432877721508       -0.00173609146553
C            0.17371007374606        1.75565139652909       -0.00096181935738
C            0.96645461450747        0.62409335728384        0.00135621782440
C            0.71513035229264       -0.83978640341772        0.00438602646885
C            1.95338493652375       -1.46506784460112        0.00562641663199
C            2.98274378615566       -0.50351154284609        0.00362705447837
C            2.37633354375076        0.77328722424414        0.00090272615985
C            3.08815619624919        1.97030986061578       -0.00227268038661
N            3.71963803274075        2.93300945597126       -0.00195505094499
N            4.30052123162663       -0.74612933372157        0.00396099829697
H            4.64471983085588       -1.68976631361160        0.00611235560955
H            4.95425198278522        0.01800562194989        0.00257970273852
H            2.11742087695685       -2.52641566691269        0.00773528445836
H            0.77571269672207        2.66117960089563       -0.00275468118869
H           -1.40247390879720        3.09044819472639       -0.00392205357706
C           -3.60846959611614        1.91100096952530       -0.00242574397573
C           -4.61147066779285        0.96070732680847       -0.00103158695560
C           -4.02447024754553       -0.30648500010579        0.00168194771787
H           -4.55561503891845       -1.24091253090049        0.00328088358213
H           -5.66811395629062        1.15838834739420       -0.00188339708600
H           -3.74692940899905        2.97660080769650       -0.00451302956593
H           -2.43814828260822       -2.22720584671190        0.00669154554334
