33
 energy: -58.038818819131 gnorm: 0.000863854785 xtb: 6.6.1 (8d0f1dd)
N           -4.59006277257073       -1.37007300785891       -0.02473134078854
C           -3.69857595825778       -0.64078615901745       -0.07059760978957
C           -2.73398530615857        0.36114708420265       -0.04928492309225
C           -3.07460379430334        1.69417932454993        0.39089653911660
C           -1.92854235419555        2.47482353383842        0.40542408933712
C           -0.85326022248800        1.70252485743397       -0.05962636032684
N            0.25010263592386        2.23803309277656       -0.47360910191264
C            1.46336975536343        1.84863320766929       -0.76607202129396
C            2.21290917520481        0.81053118852124       -0.25409537967469
C            3.62803054870721        0.90938385509824       -0.08646439169565
C            4.06737246215258       -0.19380618922802        0.63164514160492
C            2.98700305394969       -1.05501424026977        0.84819667389370
N            3.10875651492663       -2.26685592777793        1.50386060003102
H            3.96867039493671       -2.35604046103067        2.02597735770913
H            2.29592832133048       -2.55857518475854        2.02779882708882
C            1.80756216918168       -0.49938396663131        0.28525195382020
C            0.68929199098960       -1.27455023715472       -0.06205675479125
N            0.84189410569361       -2.62867819288191        0.05326146135625
H            0.09711546436670       -3.21865939768458       -0.28277732609739
H            1.77497864943046       -3.00565103537145        0.02828844544079
C           -0.63445628743608       -0.88372390155751       -0.45521058621662
C           -1.41971430387191       -1.93724637312470       -0.97280556551382
N           -1.98520349663846       -2.79357674307929       -1.49518360760675
C           -1.35313427303861        0.29921611210037       -0.24249699012972
H            5.07611948686906       -0.37253013047958        0.95777736863358
N            4.42726683954638        1.92837754011560       -0.52605512309429
H            5.32226285020936        2.02006539768616       -0.07427717016865
H            3.98463117272163        2.79621192182602       -0.77601520966900
H            1.99378050824218        2.59491362841324       -1.35740422465151
H           -1.87242067328350        3.51752679372036        0.64796478872890
N           -4.32071191255678        2.05476605997215        0.72779565970643
H           -5.07077375308212        1.38965219820722        0.64056266725904
H           -4.51271964826322        2.97701624877455        1.07515687758591
