29
 energy: -55.181473017974 gnorm: 0.000814381392 xtb: 6.6.1 (8d0f1dd)
N           -4.40076220931354       -1.19512441184635       -0.23871733470280
C           -3.44685106787673       -0.56495517221313       -0.10990384638021
C           -2.37445198102884        0.31658506562812       -0.00693128972263
C           -2.51832766656238        1.72563669252616       -0.28479429701991
N           -1.36842712854124        2.38876404116411       -0.17248460083662
C           -0.43456956462475        1.49493047540150        0.17581149951816
N            0.69962423310189        1.89647170257541        0.63651427772932
C            1.92104544348415        1.45677949267699        0.74657693487816
N            2.70780833593747        2.05877943792309        1.65354639388041
H            2.34752170691886        2.83731695052557        2.17977120674544
H            3.69439158903418        1.86887979513681        1.65495005698608
C            2.50278054195353        0.49624021212691       -0.13067831017394
C            3.74715957166555        0.59220759969346       -0.75109995014870
N            4.03312742467029       -0.50009213902567       -1.46925871266063
C            3.03955881561930       -1.35679490225864       -1.26996274837430
C            2.00867997318110       -0.81626145794464       -0.47103125186561
C            0.91960831685852       -1.57649171672258        0.02753704750287
N            1.14107647349745       -2.90548617706765        0.11317856229621
H            0.38757121616840       -3.54231662444473        0.31867908917262
H            2.03186440933722       -3.27236370016590       -0.17260234189060
C           -0.39288412016188       -1.14379972087266        0.36295354749698
C           -1.27476905399519       -2.17809334728448        0.75424521220522
N           -1.93663685079834       -3.03552407714167        1.13979723586800
C           -1.01476737874660        0.10352947181448        0.20348006092125
H            3.04688023073713       -2.30830014691310       -1.77273666860874
H            4.40812552461189        1.44021795402026       -0.75406764778869
N           -3.65599412199513        2.32021245894572       -0.62783441663753
H           -3.64893268502094        3.30236963753010       -0.84370167081141
H           -4.51042878751255        1.79098241911562       -0.67906293447730
