29
 energy: -49.574761902225 gnorm: 0.000841267915 xtb: 6.6.1 (8d0f1dd)
N            4.79570179102383        0.65806595369112       -0.79308407198502
C            3.55175291023507        0.34258833856029       -0.40756943750564
N            2.69236542988305        1.32041827635803       -0.05105230315397
C            1.54828905374909        0.72129844973266        0.27483363370590
N            0.52408902937674        1.40995324666975        0.64956760050985
C           -0.77966704626902        1.27932484074387        0.67808437838230
N           -1.42145727883393        2.21083428802532        1.42253521221136
H           -2.42544300489586        2.22302763637225        1.44603997644409
H           -0.88268878666195        2.90340834636297        1.91180824728880
C           -1.58142840790677        0.40260245945758       -0.10164463732144
C           -2.83208410487408        0.74194669373565       -0.66069050600989
C           -3.41746214789837       -0.41187766219470       -1.17788171909027
C           -2.59562716258247       -1.49362164207906       -0.87687631145743
C           -1.43688667924302       -1.03109609169182       -0.24545655322755
C           -0.45236029211324       -1.88142559882928        0.34433160248124
N            0.84651427959004       -1.75672309066751        0.33257646565739
C            1.70022660777394       -0.79266209993053        0.11790236838103
C            2.99507064078509       -0.95031777769789       -0.34007706346161
H            3.49197640915744       -1.86887260545025       -0.57953638218912
N           -0.90449101909376       -3.04839215945690        0.88286805139028
H           -1.85807755260774       -3.31413767757923        0.71196258907697
H           -0.22973047478670       -3.76587480147047        1.08859458460434
H           -2.79362809877058       -2.51502120372155       -1.15319516853003
H           -4.36410167208323       -0.45763995920404       -1.68610081161986
N           -3.39559090903461        2.02489618462520       -0.68974716453610
H           -4.11710816282056        2.10217424415043       -1.39553173891167
H           -2.70736441106582        2.76010605911137       -0.79591111859373
H            5.07189406387922        1.62345528612309       -0.77686228295151
H            5.45174510468790       -0.05414267404651       -1.05502887558886
