34
 energy: -61.771583046617 gnorm: 0.000540268591 xtb: 6.6.1 (8d0f1dd)
N           -1.77558139039567       -3.93005860324594        0.91061209783967
C           -1.30915838088519       -2.91793000842249        0.62599712967149
C           -0.68455782306017       -1.68569222963291        0.32685589094299
C           -1.58282800603260       -0.74819299742193       -0.17432888629442
N           -2.80124356433949       -1.13959661723335       -0.55286905205869
C           -3.47294910729873       -0.00195494083868       -0.81000952351018
N           -2.79906938392317        1.13615021106557       -0.56606127675845
C           -1.58142858884305        0.74585265624283       -0.18144256810593
C           -0.68528478817366        1.68592944015585        0.31688417897385
C           -1.30738873818067        2.92400483479535        0.59585665044802
N           -1.77062496821643        3.94251010616688        0.86234963095154
C            0.73234753810616        1.67151100227730        0.45797711182524
N            1.26203235567756        2.78868806007396        1.00884133707121
H            2.25705782078728        2.85505500225544        1.13734970613774
H            0.66687358535983        3.55353366944019        1.28011026193785
C            1.65274247800483        0.73290428168220       -0.04704622697614
C            1.65227442804009       -0.73391229356577       -0.05589192829138
C            2.94156252006153       -1.12802913771571       -0.49674556336608
C            3.69171070352817        0.00373219004073       -0.79880323140832
C            2.94322257592291        1.13192565357421       -0.48105964209168
N            3.41170945804397        2.43694446933900       -0.63322444592148
H            2.71604941394608        3.09482166415547       -0.96057805374472
H            4.24687485684089        2.47319841099260       -1.20250303683806
H            4.68561141797658        0.00574124577921       -1.20859957968649
N            3.41010911562968       -2.43089940406888       -0.66625791378464
H            2.71408313505770       -3.08536626905481       -0.99950741777505
H            4.24375629700816       -2.45979068772936       -1.23817787600859
C            0.73442189858984       -1.67570274470745        0.44903533078613
N            1.26839399494034       -2.79860503743889        0.98430960137336
H            0.67433477392020       -3.56270987337943        1.26030658275255
H            2.26453351873271       -2.86692613422367        1.10296747245173
N           -4.72011980738296       -0.00363499463929       -1.27717819656785
H           -5.19668295192552        0.87173623974923       -1.39713546433755
H           -5.19887899701746       -0.87908657116951       -1.38569267393634
