32
 energy: -59.129742436355 gnorm: 0.000831268036 xtb: 6.6.1 (8d0f1dd)
N           -5.94763793869910       -1.64041465879457        0.48498626261995
C           -4.86269417254935       -1.38233575589148        0.20431981104467
C           -3.54772077734635       -1.01876356410949       -0.09289813961942
C           -2.60288286789427       -1.74905211523545       -0.80555815197885
C           -1.38665297153167       -1.05081333183736       -0.78806455656194
C           -0.22569435001298       -1.61128579879093       -1.31916581278160
N            0.98882034585228       -1.50926661805381       -0.88460349218397
C            1.72479714150552       -0.69433201082163       -0.20609178228232
C            2.95849233795659       -1.07051078932024        0.36495648017602
C            3.44799594322223       -2.35994148549977        0.55241510120503
N            3.90466244581526       -3.39904833803731        0.74191613344189
C            3.68524953303833        0.11337315904720        0.65358242037890
C            2.88940868352844        1.23360766635163        0.32153403500164
C            1.64991278468592        0.80240581036058       -0.11327500251305
C            0.54125688173914        1.65031677338276       -0.29969164413614
C            0.92649960439672        3.00931648513393       -0.37373471249437
N            1.23838886229989        4.11190270661233       -0.47654215852262
C           -0.86324052604974        1.43827462399203       -0.22590748804116
N           -1.60260498153378        2.57648559886336       -0.17612445664170
H           -1.15279890534562        3.46887142017192       -0.29878307064311
H           -2.60027147424168        2.52076028833822       -0.29607136286570
C           -1.61297862488960        0.23410655892881       -0.12071056988940
C           -2.95671532957237        0.21148654027121        0.30628061478027
N           -3.66067209589942        1.19134872430229        0.97854189970064
H           -3.13264115350038        1.74575287257973        1.63713145122615
H           -4.54462575018061        0.86842581240216        1.34870844665803
H            3.18865291097184        2.25457570512656        0.46716594237044
N            4.91636195861176        0.14889634969555        1.17051508290805
H            5.39834456342918        1.02296274729631        1.28788367339897
H            5.39109496169510       -0.70980403681994        1.39418690582690
H           -0.35239853849966       -2.38872237598345       -2.06930968425660
H           -2.75136571130142       -2.72413569506150       -1.22936135892542
