30
 energy: -55.689890563071 gnorm: 0.000808314452 xtb: 6.6.1 (8d0f1dd)
N            1.48214062544467        4.28670868270337       -0.42996892683418
C            1.13200529041474        3.19620550731819       -0.35504945799217
C            0.67130940449933        1.85472040095344       -0.28615833554216
C           -0.70659457252525        1.78123076782385       -0.04085989437963
C           -1.65087050000603        0.77874639494141        0.10289809493738
C           -2.98620877142927        1.12189317563982        0.39962628948532
C           -3.79620126228441       -0.00388833416147        0.30371164990685
C           -5.17228831384289       -0.08397772910039        0.53391773333077
N           -6.29999299432883       -0.19624290009505        0.72501578140560
C           -2.99209628244252       -1.10441639726527       -0.10928839051623
N           -3.46751770032838       -2.34873202458961       -0.33995415989578
H           -4.41363430514943       -2.56019091296823       -0.07223299634271
H           -2.83460377512102       -3.11653296337200       -0.47186922768485
C           -1.65832635929805       -0.65900239515213       -0.22189395528793
C           -0.62874783347271       -1.45085975652822       -0.71777042092298
N            0.64380102641405       -1.39817813967654       -0.49250115338116
C            1.59376740111737       -0.59051745489260       -0.16652305964651
C            2.87114959931883       -1.04234518963533        0.22563996799917
C            3.23855161183258       -2.34832391312596        0.53709669788338
N            3.59019329269564       -3.40889712161402        0.81230985428788
C            3.76965406032900        0.05602603968155        0.15990640449777
C            3.04666831321113        1.21654642035263       -0.19249353590662
C            1.70301090860002        0.90197312813593       -0.31467454306664
H            3.47113949433310        2.19980093541517       -0.27158431506395
N            5.08037205708995       -0.01145808328111        0.40856475787288
H            5.66388173961321        0.79974537623347        0.30030044348819
H            5.49550855806537       -0.88332283572970        0.69162454830370
H           -0.91516796783750       -2.33346502536057       -1.28953843688813
H           -3.32597938428451        2.10724254546428        0.66054776759176
H           -1.14133767422740        2.76913733048344        0.09602465486261
