30
 energy: -55.706474476038 gnorm: 0.000656650472 xtb: 6.6.1 (8d0f1dd)
N            6.53559550864675        0.29408928103086        0.92405210614216
C            5.42744403330699        0.29672633755655        0.62216171735672
C            4.07742909004153        0.28662851067124        0.25150918726355
C            3.26351074953825        1.38951298555113        0.05835087494313
C            1.95766067210374        0.94998871874546       -0.27405975526103
C            2.02922167414523       -0.50688097219310       -0.34023441038235
C            3.31986641472803       -0.88268257314689       -0.03343878238869
H            3.70204860281453       -1.88569761080228        0.02849709853309
C            1.01849444616105       -1.41184067723226       -0.80351257480677
N           -0.23217287798454       -1.41298232984798       -0.45221952600774
C           -1.18303013978925       -0.60569378940399       -0.11158283488728
C           -2.39741779742435       -1.06034819394667        0.44764482267890
C           -2.66528226227828       -2.34419641490603        0.92027747141315
N           -2.92882819194739       -3.39035075633644        1.31835363351122
C           -3.35032223890133       -0.01937996400767        0.36493978020564
N           -4.62500114348637       -0.08688492260579        0.75579327190586
H           -5.23627640613538        0.70224984757532        0.62869563063688
H           -4.97975690512347       -0.92786392714832        1.17933840039929
C           -2.72166191107708        1.12261698877069       -0.21000991076209
C           -3.36987795650772        2.33682678018099       -0.42519887728857
N           -3.94040648388468        3.32153585779695       -0.59622109386124
C           -1.36048170739715        0.83983506149187       -0.43130939345364
C           -0.42296318958997        1.82869402626041       -0.68934103387529
C            0.95956199703932        1.87372801520888       -0.56516639262430
H            1.35095111180889        2.88447287812313       -0.63393929127514
H           -0.87956687258134        2.79742716964080       -0.87125920508960
N            1.41390716942633       -2.44726020734519       -1.56734435053534
H            0.74933596114750       -3.16353081065390       -1.80791655043257
H            2.38735844240634       -2.58368846472240       -1.77223474702494
H            3.55505277549458        2.41586183489435        0.18072252626856
