33
 energy: -58.063552986082 gnorm: 0.000849499005 xtb: 6.6.1 (8d0f1dd)
N           -3.86607575791210       -3.03539602987260        0.47033396976443
C           -3.27207580453545       -2.05365020252055        0.35831064184192
C           -2.56759319962636       -0.86390503851744        0.22652758074159
C           -3.12589696617260        0.36722399384946       -0.15385306797448
C           -2.08947115719232        1.34765392291986       -0.18805567177908
C           -2.29283615898446        2.68992671506820       -0.49043273480987
N           -2.50786409336576        3.79029168185944       -0.75455635280289
C           -0.88099196331789        0.74044738628419        0.18957555772332
N            0.17137949087779        1.42155720261937        0.53818798911430
C            1.45100762181306        1.23174024663507        0.66839301373425
N            2.08774685426992        2.16242887582392        1.41699502544552
H            1.54013853957279        2.85553387121018        1.89728681285205
H            3.07259979661559        2.07923126150373        1.59447965881819
C            2.26760731219335        0.29195516224491       -0.03269245587952
C            3.52532744744114        0.60333276202943       -0.55285682351591
C            4.11085151842564       -0.58011336493729       -1.05429259921637
C            3.26953127520207       -1.62905689229992       -0.78380128140816
C            2.08009207893987       -1.14463285347171       -0.17102480559180
C            1.07440303033270       -2.00435476165227        0.29479812236139
N            1.43571418587546       -3.30268341600956        0.50007167871123
H            2.37298278004729       -3.59307462948137        0.28899914104941
H            0.73006183540123       -4.01253334785472        0.59055349210887
C           -0.31468380187334       -1.78068526612675        0.49738626277834
C           -1.15244951236356       -0.71047429117319        0.35705659203989
H           -0.85711451468639       -2.70988385369703        0.66368250299010
H            3.45289479037739       -2.64396843355529       -1.08878538712374
H            5.06384075979373       -0.63523998666038       -1.54827703270255
N            4.13368151079415        1.85059044184725       -0.58135786433023
H            4.86013834580362        1.92347223653154       -1.27965478549579
H            3.49315593409907        2.63165453603416       -0.61321712238836
N           -4.41420487888256        0.60337981190048       -0.43955470934748
H           -5.09254955455231       -0.13426604203546       -0.36233037167935
H           -4.70700161841539        1.52394303530768       -0.71740193273214
