25
 energy: -47.499295744066 gnorm: 0.000876005950 xtb: 6.6.1 (8d0f1dd)
N           -5.40310953485668       -0.00166838500821       -0.97388008476513
C           -4.29217616491365       -0.00122241514578       -0.67934759802226
C           -2.94259782052189       -0.00060121399140       -0.31539593613288
C           -2.15903947787053       -1.13851289458378       -0.06566571624932
C           -0.87062970604682       -0.72164479590042        0.26191336494481
C            0.17406149332165       -1.60059935653420        0.71141843740471
N            1.40976758826568       -1.58050931268978        0.30530259373882
C            2.28997776292772       -0.77012513745977       -0.15609148588502
N            3.35065616403391       -1.13816586542212       -0.87429080340433
C            3.94609185954913        0.00003373779098       -1.22367679928699
N            3.35018649162573        1.13860617468980       -0.87631056125027
C            2.28965862116408        0.77140335489563       -0.15746090979921
N            1.40911125168383        1.58224350610416        0.30248861274931
C            0.17338987225685        1.60254517706147        0.70855084403644
N           -0.17999513312438        2.63189844138453        1.50223282749670
H           -1.15137939214300        2.79044326155121        1.70370141513565
H            0.49379047499541        3.35369354045287        1.69739497855612
C           -0.87093182070563        0.72234948164519        0.26061698341400
C           -2.15951764714893        1.13808729963741       -0.06771006690902
H           -2.49362447606465        2.15418421850102       -0.17277811125338
H            4.87156056661868       -0.00026098904562       -1.77114729195430
N           -0.17888706321709       -2.62867588945661        1.50694685892060
H            0.49520119185097       -3.34983868556146        1.70339692360458
H           -1.15020480307831       -2.78726677073311        1.70870536851097
H           -2.49271976220173       -2.15493671728187       -0.16890916320066
