28
 energy: -52.233013116015 gnorm: 0.000567548909 xtb: 6.6.1 (8d0f1dd)
N           -0.98076001665194       -4.34680856557284        0.00148910337587
C           -0.91742182224782       -3.20233144506014       -0.04096326771137
C           -0.90683008954011       -1.77863726866908       -0.07638195888384
C           -2.20924916016475       -1.28281600195781       -0.09982771526653
C           -2.77249662275187       -0.02290477205521       -0.12016717794082
C           -2.24612773548919        1.34794457168937       -0.00136100636231
C           -0.99822394541036        1.90365269002165        0.15416730563368
C            0.31851854167847        1.42216603244036        0.13003443670082
C            1.21834876025729        2.49807760217919        0.38431250442659
N            1.83874062213732        3.42208968531497        0.66017791548326
C            0.91885254209080        0.17615952361303       -0.09340319469448
C            0.38869318254397       -1.22426783342896       -0.14135951575146
C            1.48496095900906       -2.06647587142041       -0.27451327717096
C            2.66493827965063       -1.31168004038873       -0.36555682895537
C            2.30923179580176        0.06683788016523       -0.24781305975617
C            3.30450645366270        1.04101849221058       -0.36827133134269
N            4.23984663971695        1.69068174671397       -0.52930456931452
N            3.90465145300736       -1.76750725588101       -0.53635026574256
H            4.08323819671007       -2.75410171388693       -0.61375380212833
H            4.67199680423797       -1.11735448820051       -0.60188291392991
H            1.44423075333323       -3.13778597267279       -0.32857747081505
H           -1.03910334139600        2.98073483494841        0.30245351128395
C           -3.41005833614273        2.15411359745404       -0.03623460457564
N           -4.52210045295226        1.44511109594803       -0.17426978570019
C           -4.16568608821482        0.16042509789978       -0.21105654531630
H           -4.90723568798984       -0.61143176313265       -0.30814364751748
H           -3.44295941637642        3.22663774921054        0.02369186482737
H           -2.95767061081015       -2.07219894188254       -0.12083574115404
