28
 energy: -45.822649467328 gnorm: 0.000782324473 xtb: 6.6.1 (8d0f1dd)
N            2.70682389623256        2.78379116427624       -0.24045906428531
C            2.32746227479731        1.48139820037167       -0.04060309715929
C            3.21069317256703        0.44973409663508        0.30209835995455
C            2.50721892639041       -0.74081376145979        0.36255077003885
N            3.09137355824640       -1.97102855514088        0.66335752022991
H            2.53810886698430       -2.54568686878268        1.28627578761022
H            4.03841050965832       -1.86446545594160        1.00371261012824
C            1.12590362185618       -0.50251582585873        0.07291468375499
C            1.01911345274369        0.95702556149661       -0.12445828160092
C           -0.07490962001290        1.77585695138881       -0.39299340799437
N           -1.31647455312317        1.70181921397104       -0.03851658499499
C           -2.20148058306288        0.79150678328310        0.22377328833830
N           -3.36421550094098        1.09466760645900        0.78288922156097
C           -4.16277276568102        0.00721687770212        0.63582468891850
C           -3.55134447175598       -1.05182764960933        0.01558872135378
C           -2.20249497469715       -0.65904584219448       -0.20137761827564
C           -1.18420938084064       -1.54016563075903       -0.40160566595538
C            0.24070542971396       -1.52257715179462       -0.27974644594604
N            0.77887795409971       -2.77575603264895       -0.44001708354701
H            0.19528917052779       -3.48721638232906       -0.84659400898600
H            1.76881288215347       -2.84150098014818       -0.61916120431548
H           -1.54885864543980       -2.55306351273935       -0.57123463925326
H           -3.97708320080348       -2.01092237144116       -0.20798479820793
H           -5.17502185756629        0.05463822803270        0.99961571178553
H            0.16135153783303        2.73812762838404       -0.85014124036020
H            4.26602029109857        0.56235684670181        0.47540116475500
H            3.59089694606906        3.04803296635322        0.16373803432712
H            1.98853447215130        3.48555741139290       -0.16874519737442
