27
 energy: -46.916386262584 gnorm: 0.000761822065 xtb: 6.6.1 (8d0f1dd)
N           -3.07528573986555       -2.58821364791452       -0.72502912543755
C           -2.23964881781539       -1.83851844750521       -0.47387353765882
C           -1.18530116320172       -0.93311050098220       -0.20955349657153
C           -1.64549276136596        0.37193233317382        0.05771664636289
C           -0.87385238832479        1.67329504100984        0.16016820246669
N            0.25875595375031        1.99332479667150       -0.35907393978420
C            1.37371490435140        1.42204527855186       -0.73161114895442
N            2.09914370051933        2.05495079909151       -1.67333078966913
H            1.77967149614920        2.93715045259251       -2.03647488476561
H            3.04230799191288        1.75675245048553       -1.84929021527137
C            1.94286989845126        0.30860939685944       -0.06146449888649
C            3.27426399922288        0.19774406376286        0.35056790084562
N            3.51635203100539       -0.97325784294225        0.94048677530747
C            2.39196495319373       -1.68177924808642        0.86048420343749
C            1.33332941013559       -0.95776547196802        0.28101025102675
C            0.08984349050994       -1.54064954660860       -0.08520804636470
N            0.12992310552102       -2.88175054422661       -0.27665735162145
H            0.99635935210399       -3.36972412858873       -0.13493488376090
H           -0.71940822785992       -3.41115042405541       -0.38664083366087
H            2.35383163850609       -2.66423049808111        1.29810681713173
H            4.03457248862961        0.95647085691653        0.29964313159804
C           -1.76418820413312        2.62547272309036        0.70345877849128
C           -3.00344302781761        2.03795783044235        0.80774394667423
C           -2.94594735559575        0.68827474787141        0.38887303602915
H           -3.77527796358956        0.00623582378180        0.39750088460072
H           -3.89618447103277        2.52278880160369        1.16205577976838
H           -1.50498185216030        3.64268196805401        0.92004338176661
