31
 energy: -60.983957669412 gnorm: 0.000865115769 xtb: 6.6.1 (8d0f1dd)
N            6.50445928821669        0.69644264125556        0.31016670675773
C            5.36274461936167        0.65351262706295        0.20376445784683
C            3.97222379623323        0.54256532671013        0.06370570181403
C            3.05502499787060        1.55846467772714       -0.02795611944697
C            1.74140631565702        1.00204153077007       -0.13961291591695
C            1.90552902737027       -0.46955808690760       -0.14010627306713
C            0.99547103655168       -1.50361330622201       -0.35094041320992
C           -0.38186260487533       -1.63095897059141       -0.30391350644104
C           -0.78467402779623       -2.94012922417049       -0.68407984220335
N           -1.01248612656290       -3.98799141560168       -1.09165324378418
C           -1.44523699942694       -0.77028588148459        0.08562782996725
C           -2.68018011360591       -1.28443421460285        0.47726413303949
C           -3.01218375284383       -2.61060288138985        0.78718807396391
N           -3.33859374001978       -3.65664988498320        1.12953589999528
C           -3.61110328139072       -0.21728248265873        0.65759384045535
C           -2.99323042934868        0.96411119634367        0.33375194436227
C           -3.61874565594740        2.21066708751476        0.48445277514517
N           -4.20971466945500        3.17753649027065        0.66595252446778
C           -1.60465856976939        0.69419029493842        0.00547818569516
C           -0.73795916074628        1.71609642011040       -0.30484524490443
C           -1.31480930887548        2.97996175423088       -0.63051166069682
N           -1.65010414330303        4.01107266324134       -1.00059522870677
C            0.68525591522794        1.84505678269847       -0.29858538730729
H            0.98219672434305        2.88768169592174       -0.38549925816098
H           -4.62247400788163       -0.33523872684174        1.00042793973034
H            1.47973844747231       -2.45153005114416       -0.57429371162529
C            3.28062686968790       -0.72104975237260       -0.02716016269961
N            3.91805784039195       -1.90350407081788        0.05201465868768
H            3.42861895427216       -2.77051851694728       -0.08240197568849
H            4.92348425075274       -1.92238462211102        0.06625616996861
H            3.27287300713591        2.60964316375565       -0.00358130521643
