29
 energy: -51.167955201072 gnorm: 0.000599536861 xtb: 6.6.1 (8d0f1dd)
N           -4.99831870222375       -2.14354195968616        0.87187520493541
C           -4.35835236612364       -1.27951919526650        0.46099773484894
C           -3.57025983776091       -0.23838078657456       -0.02382006894691
C           -3.98920324298658        0.77757613130010       -0.90842614758672
C           -2.93541976915120        1.62396527648962       -1.19429689818046
C           -1.81354155246906        1.21303543942518       -0.45240570725155
N           -0.77978905414854        1.96144648908324       -0.24911070027489
C            0.41229187609943        1.91145360596852        0.27282294162303
N            0.85118525145505        3.05939011627141        0.83118973934106
H            0.24539194012758        3.86127722460481        0.85196067858511
H            1.79198442101787        3.13529273580170        1.17148032087183
C            1.35046463229287        0.84155180635218        0.14297623887212
C            2.70426003774256        1.02477920658986       -0.02886095263217
C            3.35379325675490       -0.23824442216475       -0.03500929307882
C            4.71578282082680       -0.46457758638285       -0.23373001809892
N            5.83262532458247       -0.67847560696095       -0.40677092126617
C            2.39769314079973       -1.22550453305543        0.20500937257737
N            2.66325310980050       -2.55474516759507        0.32992222978580
H            3.57971015310890       -2.86089883481852        0.04586831169998
H            1.91801401650987       -3.21869456134903        0.20824758322841
C            1.10366230468436       -0.59567571619804        0.31208406399694
C           -0.00765406669828       -1.31994649768261        0.68563314980089
C           -1.38984696539731       -1.08549909646351        0.71520346302647
C           -2.18454629382768       -0.07922759136765        0.21773745953051
H           -1.96304171606258       -1.93881609479419        1.06784771928079
H            0.23056440125046       -2.33812740388791        0.97927998636415
H            3.21053945278475        1.95872355435463       -0.19292522249861
H           -2.97017244376178        2.50098910072691       -1.81047919224503
H           -4.98963924102770        0.86686420737839       -1.29422619960821
