27
 energy: -46.943081950737 gnorm: 0.000417002833 xtb: 6.6.1 (8d0f1dd)
N            4.31661730168374        1.89037414695666       -0.96464782936950
C            3.48892278957001        1.15134736586306       -0.65478891202545
C            2.52853938607178        0.22549297159261       -0.27243891153323
C            2.80929634267538       -1.01996845810024        0.37735347741009
N            1.70459896754444       -1.72212791736092        0.64202941952554
C            0.66888716916116       -1.01584479906860        0.16382106359613
N           -0.47822505418477       -1.58423843838925        0.01544067888408
C           -1.72204633358130       -1.29385234787845       -0.23798005559241
N           -2.42400082924773       -2.26720623603679       -0.85563841292637
H           -3.41616568047080       -2.17481045148684       -0.97656189858010
H           -1.97016183525196       -3.14207924712812       -1.05566824428468
C           -2.43866632477257       -0.13701234625828        0.19100746500493
C           -3.75921871939309       -0.14792975381706        0.61088210873035
C           -4.18612640287905        1.17766424590640        0.82177862261908
C           -3.16168259652107        2.02311207139126        0.47534619465939
C           -2.02122853237458        1.25907393022582        0.10513414742033
C           -0.87050602960698        1.88478651061170       -0.35537558293685
C            0.43662526451258        1.48992057138021       -0.60835383681042
C            1.12960014219490        0.31883899268872       -0.34276858579420
H            1.08852252612919        2.29693033681085       -0.93157066438610
H           -1.01345744200897        2.95433274303430       -0.48338579021186
H           -3.18436327122003        3.09701194107324        0.50490457308179
H           -5.16223193257508        1.46532132015616        1.16769303368532
H           -4.35346685756768       -1.02560655079907        0.79624116410321
N            4.02444715238719       -1.46535810750962        0.70400160848714
H            4.10785189690959       -2.34700900670711        1.17853841925549
H            4.84407338411517       -0.93833614644794        0.45846047108900
