29
 energy: -45.560059432734 gnorm: 0.000459682215 xtb: 6.6.1 (8d0f1dd)
N           -5.01206739023193       -0.61537824788040       -0.36262877725441
C           -3.71473943765717       -0.28304111491073       -0.19365017115631
N           -2.76394048720364       -1.20918523780264       -0.11282048499987
C           -1.57581955358669       -0.55209913568008       -0.00714552097059
C           -1.81974822920322        0.91231108448761       -0.01030528849722
C           -0.96444739356470        2.01181297310546        0.12285282225981
C            0.39722074690150        2.16131960485459        0.17645422193711
C            1.52481437140987        1.33925435169402        0.07527692921383
C            2.77855230300818        1.96174354266086        0.02526999651604
C            3.77614826524013        1.01198966540406       -0.13503406543888
C            3.18629556000051       -0.24647158715983       -0.14652271206216
N            3.91472030494601       -1.44405786204770       -0.29846028231683
H            3.55253351269558       -2.02904217456470       -1.04379101659871
H            4.89302344681686       -1.23971239477160       -0.46806559858419
C            1.77804709075769       -0.11230582380466        0.01087951702154
C            0.93508288332673       -1.21302212237232        0.21693835919550
N            1.55026817011258       -2.40626677511769        0.45493697254658
H            0.98602856642331       -3.19383061834193        0.72247192877994
H            2.52735126980357       -2.40226881102991        0.70533853421676
C           -0.47483984945641       -1.34743467901726        0.14266333950453
H           -0.78594791936116       -2.38887603505554        0.19042030615376
H            4.82990543890255        1.20516875120268       -0.23767461331902
H            2.93407130699390        3.02463021476933        0.06754730603707
H            0.69540980743921        3.20261791480737        0.27280981199446
H           -1.51444212699471        2.94732220359858        0.17340827771337
C           -3.19122292741325        1.03387505880414       -0.12253856431941
H           -3.76369577382931        1.94126501003623       -0.15475153550170
H           -5.25870522091744       -1.58477335004857       -0.26648475303368
H           -5.72318967905921        0.07936340348108       -0.22163078013778
