26
 energy: -44.002126728838 gnorm: 0.000342643764 xtb: 6.6.1 (8d0f1dd)
N           -6.13302294284573       -0.67817888857137        0.00959428112014
C           -5.00038721395044       -0.49334821565235        0.00802321377857
C           -3.61641190118197       -0.26507990942781        0.00654401637556
C           -2.62561089101437       -1.25370700696261        0.00824830077839
C           -1.36388215547823       -0.64566554671308        0.00581572801806
C           -0.22419831798004       -1.43212188740151        0.00688227745915
C            1.14732796715781       -1.20217880165449        0.00532136966944
C            1.96200780154785       -0.08550258937832        0.00200907841399
C            1.72372578329009        1.38253596967196       -0.00142993575397
C            2.99378033620227        1.98778717075184       -0.00380860216119
C            3.98189492495419        1.02096216867902       -0.00208643044814
C            3.37115507394458       -0.24378964889955        0.00150016036372
C            4.04698785612978       -1.46699901309122        0.00438031179599
N            4.59870866911975       -2.47549686541574        0.00570529829244
H            5.04327919908252        1.19209873430680       -0.00318094080155
H            3.16127503461956        3.04903257956175       -0.00651658765580
C            0.58425698858083        2.17009235040998       -0.00255940361616
C           -0.78506848276485        1.94236367639098       -0.00099528263997
C           -1.60967616462269        0.82743359515459        0.00237598805351
C           -2.99820922332088        0.99313381202936        0.00300112222228
H           -3.51440514174885        1.93521986008347        0.00104998488428
H           -1.36184488916623        2.86313150452680       -0.00285184943158
H            0.83161576368779        3.22801093703418       -0.00535139735198
H            1.72635006326861       -2.12243996434663        0.00714554111433
H           -0.46774052492757       -2.49072685109124        0.00963717791101
H           -2.80678997448382       -2.31243188259482        0.01096781030951
