28
 energy: -50.657293687397 gnorm: 0.000754885793 xtb: 6.6.1 (8d0f1dd)
N            4.58075750533419        1.98264717740141       -0.14131353596418
C            3.72886107647691        1.21116158808936       -0.07195890964031
C            2.75767638199190        0.21926822073624       -0.01711332600766
C            2.99379826104774       -1.15566242146934       -0.31570119018264
N            1.88958794033997       -1.90915950537011       -0.22066177215732
C            0.89474233345786       -1.11538748058199        0.17964439054016
N           -0.30100417131939       -1.56990356441122        0.30445247140729
C           -1.53891944849964       -1.15398186520095        0.35924874431923
N           -2.40894897350305       -2.09067760430912        0.82422006976339
H           -2.01653160635776       -2.91755644116695        1.24283604584514
H           -3.34549674678846       -1.81609080829904        1.06389744929805
C           -2.08872749875191        0.05525437344590       -0.15136429534911
C           -3.40121385844377        0.18328615311326       -0.63743290906080
C           -3.72169130757546        1.55592574928637       -0.73483423632156
C           -2.66387330900551        2.28357161699632       -0.24780054534220
C           -1.60118951325852        1.40784595484743        0.08969915928292
C           -0.42035408403017        1.87862910900032        0.65944902904629
N            0.79835416493363        1.41793587002285        0.63642622387923
C            1.40659155282953        0.31208292982558        0.35522584627041
H           -0.46790087145262        2.88764463930958        1.06617026836804
H           -2.61092740909088        3.35364979526121       -0.17066626778097
H           -4.66105433711418        1.94226268634473       -1.08590453077878
N           -4.27263417508247       -0.84175964589942       -0.94316363950321
H           -3.84102114091621       -1.72218918276291       -1.18344709115269
H           -5.02191906963419       -0.57810684625934       -1.56623384135992
N            4.16778439353012       -1.67943541263305       -0.67177402906821
H            4.98130451791781       -1.09375926666906       -0.74795353920261
H            4.22803332376376       -2.66624475804900       -0.85067458424839
