29
 energy: -45.563025190074 gnorm: 0.000723289495 xtb: 6.6.1 (8d0f1dd)
N           -4.85400816550581       -0.08382392675447        0.29374624518137
C           -3.51623550486739        0.01874122717490        0.13179797022625
N           -2.75217220810191       -1.07461505928298        0.01390864934351
C           -1.48043413687314       -0.65285673036138       -0.14382222575211
C           -0.53551167506062       -1.61411738295148       -0.41084502645579
C            0.86728567846352       -1.66468853615816       -0.41200284222053
N            1.37920899309829       -2.85082160934549       -0.84168029378567
H            0.77028297993214       -3.63768691491902       -0.98536377759712
H            2.36790761637093       -3.01351867227857       -0.77591439749232
C            1.80584339796246       -0.73962155014176        0.09255027325132
C            3.03429530552101       -1.17737784517461        0.63628729656030
C            3.76526189163564       -0.08331079672288        1.05315318785522
C            3.06166131281436        1.06831469215993        0.70589243082077
C            1.83518916594422        0.71258673185939        0.13592542485893
C            0.95656939907087        1.70466822162982       -0.39274276730461
N            1.58097792204593        2.83993877330361       -0.83254837292297
H            2.57375340852989        2.92586480174510       -0.71145763311692
H            1.04643130824296        3.67975954164137       -0.97424442580371
C           -0.42811055887870        1.74383168532399       -0.43800713716190
C           -1.44334174857448        0.83491640031661       -0.15037540183857
C           -2.77144682793756        1.20774577745053       -0.00001175738176
H           -3.16460496509646        2.20592204421757        0.03288411824192
H           -0.81879207580971        2.72735000105385       -0.69216978160908
H            3.38819664049550        2.06798327991658        0.93687454719281
H            4.71276607265961       -0.11080304152575        1.56106085777793
H            3.31662524876062       -2.20103269446807        0.81238066508083
H           -1.00252887733348       -2.58119532560030       -0.57727717635151
H           -5.37787039667321        0.72417698510940        0.57896521918192
H           -5.21986987683513       -0.99366135361766        0.51464598052165
