28
 energy: -50.640242986424 gnorm: 0.000658526443 xtb: 6.6.1 (8d0f1dd)
N           -3.15989867960012       -3.11039622412119        0.23283402528528
C           -2.48481380021561       -2.18416848063708        0.16833058860571
C           -1.56822131138718       -1.10616430349086        0.08134288732413
C           -2.16385576302980        0.15161238093128        0.11351230652066
N           -3.48273313967472        0.25794505946511        0.27226253649349
C           -3.73695897175712        1.57637062702108        0.22612393689101
N           -2.70847931778454        2.37005390123118        0.02859854181893
C           -1.62585223364027        1.54002670620396       -0.04924998456974
C           -0.41822797559087        2.11162259863429       -0.30428174100770
C            0.93885556917916        1.68076963677982       -0.40080615746420
N            1.77039726099458        2.68119848627649       -0.78515421113528
H            2.71001901387718        2.45539396372459       -1.07325570211889
H            1.37009764873906        3.55161962976694       -1.09204796482859
C            1.52889414018279        0.45376106793328       -0.09198098029058
C            0.99956968418835       -0.92930936957865       -0.00384612916595
C            2.18819376908413       -1.73729430048583        0.07913080265274
N            3.29956237376801       -1.00508326062835        0.12842883403770
C            2.93086892605497        0.27925888883851        0.02527186416572
N            3.91729767526335        1.24684831231627        0.04998162539831
H            3.73158295103003        2.03089250446975        0.66174421807262
H            4.81740287497298        0.82181464937373        0.23556681167024
N            2.27504472711391       -3.08399965824149        0.10618214278507
H            3.18129758276726       -3.46282603659260        0.32096461359881
H            1.47049206225780       -3.64619392455277        0.31978694442977
C           -0.22966668288974       -1.53048837465961        0.01183240849485
H           -0.17272251842869       -2.61638892863812        0.01178132363219
H           -0.52657034241108        3.18297084334362       -0.45141752134049
H           -4.73726017614832        1.95354831469297        0.34302617544173
