27
 energy: -47.722817887645 gnorm: 0.000742198540 xtb: 6.6.1 (8d0f1dd)
N           -6.06381566202790       -0.41484190816867        0.37340130166790
C           -4.94099545551552       -0.23803863906187        0.21141614000928
C           -3.56969352111963       -0.03465536545964        0.00717854240700
C           -2.91893921082039        1.18989904569735       -0.09241050780707
C           -1.53603854840764        0.97336743687233       -0.23794789027306
C           -0.71073424688109        2.09061777846987       -0.32780172182759
C            0.64868979855594        2.32847093680577       -0.27098863373814
C            1.75896992225007        1.51980643567264       -0.08531231269291
N            2.93811443266291        2.13280713796341        0.09180199570417
C            3.87314995507847        1.19704068760076        0.25318959224478
C            3.35606756109795       -0.09374284958454        0.15113073990629
C            4.04602739791443       -1.30148694908173        0.23779092927742
N            4.58043871054043       -2.31827173349254        0.29248182873012
C            1.95137462412138        0.04823334501826       -0.06903243302121
C            1.16535074604060       -1.04374200967013       -0.32985892442684
C           -0.20899119690572       -1.30211762099557       -0.52732108245655
N           -0.45662474339587       -2.57380364018619       -0.91758602614842
H           -1.38916265454863       -2.87924201618117       -1.12656606780167
H            0.29852702625759       -3.22730098887685       -1.03383197828819
C           -1.34631828187803       -0.49152047805385       -0.29028745468571
C           -2.61260678137231       -1.05646503047759       -0.14078914552897
H           -2.86094227580826       -2.09999484376365       -0.07196582914677
H            1.75484931177042       -1.95839680067422       -0.38665631374191
H            4.89719278384235        1.47152864132345        0.43389019177893
H            0.93381995559083        3.37389078409638       -0.30917859845421
H           -1.29194965071494        3.00593769267963       -0.39175419814804
H           -3.39017303322753        2.15256289792783       -0.02689591023868
