30
 energy: -49.271100619839 gnorm: 0.000596580234 xtb: 6.6.1 (8d0f1dd)
N           -2.84039893299775       -2.43627546520211        0.52111325083327
C           -2.36968375565048       -1.13036750702056        0.43800350506082
C           -3.12553738137010        0.00312853382176        0.72917388433140
C           -2.35924670877148        1.13689725075946        0.45063175914513
N           -2.82529470697755        2.44353420667048        0.54650114723101
H           -3.61410718452982        2.53508385253637        1.17110702797449
H           -2.10296468245402        3.12394550037260        0.73732481494435
C           -1.06639669170230        0.73462811541273        0.05798858655947
C           -0.09078863017834        1.61398902853038       -0.46754189615172
N            1.20925370021219        1.59631437446940       -0.30446982521680
C            2.15263190193886        0.76858096013018        0.00983815455014
C            2.14861712367897       -0.76982226365570        0.01971250190799
N            1.20472197325386       -1.59746213647037       -0.27921590839818
C           -0.09537014526740       -1.61324979420298       -0.46233343148612
N           -0.53668306641099       -2.78903073223158       -1.02388128216993
H            0.16981358865787       -3.36451132457813       -1.45200921308477
H           -1.45842381997059       -2.80026559494381       -1.42605334591865
C           -1.07085952829157       -0.73118280728938        0.04943766225463
C            3.40282425976703       -1.14917477958321        0.50477101625501
C            4.14611206417151       -0.00289845662132        0.76385956795713
C            3.40449535202089        1.14655551181994        0.48831573565148
H            3.73829333333838        2.16009966286735        0.60055401553765
H            5.15776417140675       -0.00084454378513        1.13421373061596
H            3.73070860099815       -2.16364776116247        0.62563846623769
N           -0.54000430673225        2.78312448140031       -1.03513457802088
H            0.15938144276765        3.35624503223457       -1.47740747232095
H           -1.46955137024697        2.79370744529888       -1.41912596659957
H           -4.14797720665191        0.00586964320916        1.06199348853440
H           -2.12140212724756       -3.12031159211417        0.71293012668398
H           -3.63398593236105       -2.52889402857338        1.13995123750143
