27
 energy: -46.930036713367 gnorm: 0.000504625395 xtb: 6.6.1 (8d0f1dd)
N            4.45106365291507        1.61697702383375       -0.12550007513333
C            3.68544927434476        0.75851233422224       -0.12711300060228
C            2.75460344548597       -0.27978486494381       -0.12850873700266
C            3.00523947664648       -1.62998141432843       -0.45174530503706
C            1.84920335744222       -2.37948533160349       -0.33542584271516
C            0.80342386048591       -1.54985160593364        0.09202623897736
N           -0.41362053185503       -1.94610907240415        0.27391108755318
C           -1.61532707006571       -1.43479639287586        0.33967468922048
N           -2.55151200078896       -2.23199386982271        0.90551201148084
H           -2.29961479907906       -3.16755267499391        1.17588587660243
H           -3.52083903845738       -1.98079377621043        0.83061839091704
C           -2.06724583336277       -0.22849187661040       -0.27526859878651
C           -3.29370411769550       -0.09167804530386       -0.93488215737106
C           -3.46878954032699        1.24357904774797       -1.28300772239092
C           -2.40235104346670        1.97802383506231       -0.77295816115991
C           -1.49714158363866        1.09889863932388       -0.17040620072998
C           -0.35372617012270        1.50384435153825        0.58282143087956
N            0.83588270844783        0.96680878275960        0.54088254344519
C            1.39815414272523       -0.15221286924605        0.22770851331629
N           -0.44592217325538        2.64663491604022        1.30160257366171
H           -1.26646003223505        3.21820217602002        1.20649423693951
H            0.39998380909977        3.05567348611114        1.66287077603415
H           -2.26461392875512        3.03918503650733       -0.87985192552350
H           -4.31017478806694        1.64739709134743       -1.81553789110384
H           -3.95799797890869       -0.89838780405943       -1.18930014380435
H            1.75430542999068       -3.43261715336937       -0.51629893463456
H            3.96892508569714       -2.00708298200883       -0.74653546233217
