32
 energy: -59.138734785974 gnorm: 0.000702665778 xtb: 6.6.1 (8d0f1dd)
N           -4.07995302067328       -3.40913924128340       -0.69453112411757
C           -3.59501374678047       -2.37826039937124       -0.52379302481613
C           -3.03788350300694       -1.12231569545635       -0.31118016373341
C           -3.74661143714400       -0.00025743676076        0.15053711147917
C           -2.83522764479738        1.09456936869329        0.28126883064546
C           -3.20678354536514        2.36404146764532        0.71457367514988
N           -3.56473840321539        3.39202167764690        1.08923043862865
C           -1.56870486634761        0.68640277562381       -0.16522426829087
N           -0.61640486032404        1.52338870103291       -0.44383461011661
C            0.65445289017869        1.55941891738490       -0.66413012130494
C            1.68885512340265        0.72133892956693       -0.24872130505634
C            1.67362405182637       -0.73224010212712       -0.00894812611298
C            3.04576770047504       -1.10254403612249        0.25574004669339
C            3.85039374683536        0.03485913281951        0.16049974236702
C            5.22957761995793        0.08273163368154        0.35313563718576
N            6.36639837821863        0.12890994988753        0.52562756496709
C            3.02630110516927        1.14821233834161       -0.17910875317119
N            3.50601974053298        2.39346815591996       -0.37317784844752
H            2.87976416608052        3.17149059789288       -0.47192551695894
H            4.47148203814482        2.58186503095879       -0.16585544432141
N            3.50667387354960       -2.34018826405303        0.53160192416384
H            4.47354498391906       -2.44704182913099        0.78623967012218
H            2.87446849614091       -3.08501124047450        0.76192654484923
C            0.72364227456465       -1.70158810653362       -0.20438216293954
C           -0.66824067251966       -1.73115656614475       -0.42709809653914
C           -1.65571720940622       -0.78147696509571       -0.41659592595594
H           -1.05981458361543       -2.74127272940158       -0.51135054354469
H            1.12466974199438       -2.70887165193849       -0.14195345306370
H            0.95717609395818        2.47225451727675       -1.17846077500760
N           -5.05353725544972        0.05679770573284        0.43111727798100
H           -5.45793565296238        0.90891465560978        0.78038066471727
H           -5.64103043174091       -0.74376034412088        0.27171509084909
