34
 energy: -57.765425032661 gnorm: 0.000821578425 xtb: 6.6.1 (8d0f1dd)
N           -0.83703054518741       -4.37411656990401       -0.04204257265715
C           -0.60520996414686       -3.24767856109107       -0.01957813968376
C           -0.26143318657772       -1.87575389004564        0.00184685982591
C            1.11872039710928       -1.69258439146281        0.03154030616733
C            2.00914851270151       -0.63880108499853        0.12271105310236
C            1.90459682631254        0.82689134405290       -0.04686308730055
C            0.84706584407499        1.63309423262061       -0.45427587781821
N            1.16588166481936        2.87923892182757       -0.92497541249400
H            2.09513719099430        3.02822717593734       -1.28303679230991
H            0.42730796284276        3.43888572559683       -1.31710699632855
C           -0.56713382629292        1.45987958383463       -0.34015450493550
C           -1.45589427745472        0.46673689828705       -0.06975541164044
C           -1.37347304119608       -1.00494107076647        0.06186916719418
C           -2.66016592136322       -1.47382305835650        0.22969583277421
C           -3.57720854470938       -0.39010773151115        0.23531802137513
C           -2.85386579340996        0.79144982208349        0.04452987094624
C           -3.39869595234886        2.06519661243373       -0.02635645739430
N           -3.86161863231828        3.11942329219247       -0.10051224276550
N           -4.90625272020809       -0.49440980558252        0.40578739090919
H           -5.33598703052334       -1.39645375086542        0.50173139068072
H           -5.48432916251868        0.32671869609887        0.37068961411545
H           -2.94110920025363       -2.50408355459913        0.34767075847296
H           -1.07457448945046        2.41335042193102       -0.48510850322655
C            3.22776539593988        1.33353347089109        0.13325142773904
C            4.10074663714803        0.28267246298901        0.37142389344849
C            3.38756722643996       -0.91637003413162        0.33862819147863
N            3.97367525134012       -2.14642466932392        0.47793325973671
H            3.39981207164966       -2.91704633472818        0.77787392996303
H            4.90589536913251       -2.14484084872504        0.85791951114330
H            5.15557595263287        0.37768186348897        0.55855446215164
N            3.62522299774981        2.66608791259910        0.11208648664246
H            2.97706294447800        3.30288571628299        0.55666740437987
H            4.56697488960682        2.78581798824341        0.46142683815730
H            1.62746777998779       -2.65421536149901        0.02848941155147
