31
 energy: -53.799592136361 gnorm: 0.000474725303 xtb: 6.6.1 (8d0f1dd)
N           -3.48418973857085       -2.26180088807730       -1.24328394704185
C           -2.63623820552811       -1.61468347271452       -0.80656937645293
C           -1.57490997042724       -0.83193167779461       -0.32010091567929
C           -1.99378094871188        0.44900370927136        0.19270420092598
C           -1.23823585964591        1.72219832424979        0.28040000823984
N           -0.13907806131525        2.11003611133894       -0.24636141211869
C            0.97009718833018        1.55908264211145       -0.71149588702335
N            1.74683061811591        2.42032565106215       -1.45594939731846
H            1.26627013345843        3.23623682033542       -1.80228620617223
H            2.42313658252434        2.00516220610392       -2.07578159347415
C            1.52861827188780        0.37342211521779       -0.23382973994668
C            0.92840014653231       -0.87491375562037        0.15487168329810
C            1.99449126078027       -1.62576704303798        0.66708951113129
N            3.17105843816285       -0.93726685217069        0.68211874538402
C            2.92675173065959        0.22617095327739        0.11581094022806
N            3.89714047177373        1.16600005120702       -0.06133514172988
H            3.58135885208555        2.12297406258518       -0.12531839144239
H            4.72268731182087        1.01125857489419        0.49748320680933
N            1.98817587726195       -2.92443736603350        1.11156581361320
H            1.12403992630345       -3.25056743416470        1.51717470319153
H            2.81777386946424       -3.16314481480748        1.63334756742076
C           -0.33185566768056       -1.44402284427075       -0.25788018356326
N           -0.26851413888002       -2.77393525672586       -0.56795373151418
H           -1.08473909490671       -3.21152416153198       -0.96448207456703
H            0.62991145725337       -3.18305647937289       -0.75733344828902
C           -2.11447679065146        2.67937084094795        0.93865209406505
C           -3.30222160647201        2.07862965567546        1.15022521964217
C           -3.23687334660619        0.71057276656003        0.67906750600962
H           -4.05110316806512        0.01165588657454        0.73952790125613
H           -4.17501815349301        2.51315939625500        1.60370698775678
H           -1.82234450636067        3.68617066795534        1.16368557256277
