32
 energy: -59.114438755966 gnorm: 0.000882249149 xtb: 6.6.1 (8d0f1dd)
N           -4.98629188382441       -1.16589061035518        1.09500487132284
C           -4.20357691464718       -0.36778420667081        0.82606097425287
C           -3.27025528759394        0.64145478625435        0.57844890341521
C           -3.46456805178543        2.01686720783178        1.03176475041465
C           -2.36790271667582        2.73614015614697        0.73561109167851
C           -1.42200100468115        1.87303180093540        0.04420232921185
N           -0.38800877564891        2.36862479604459       -0.51732637164993
C            0.77120430246809        1.96402438373493       -0.98643353997041
C            1.49128185181666        0.86296080737866       -0.56820568792719
C            2.93388148170956        0.91939018859085       -0.38606182445886
C            3.33075483987228       -0.25548667023261        0.23189182609157
C            4.61683742334929       -0.58824627260977        0.64776369432243
N            5.67606259461804       -0.87525010357484        0.99523738158663
C            2.17686395273330       -1.11036271747678        0.35786701568451
N            2.26843056755407       -2.37959157385042        0.83831539933398
H            3.11535744932120       -2.61843074211339        1.32914707946680
H            1.42432756577215       -2.83178459464953        1.15019294550201
C            1.04802963375508       -0.44010031506510       -0.11657611418359
C           -0.15657672188167       -1.13708370813932       -0.51720675038182
N            0.05002217071790       -2.43777700595636       -0.87631494699099
H            0.97639944933947       -2.73635661630851       -1.12777640815621
H           -0.72848107833647       -2.95874054775612       -1.24937051992167
C           -1.47353373325125       -0.68857275013393       -0.52301683400457
C           -2.43354505313182       -1.59098648172889       -1.02683472971789
N           -3.16643299906675       -2.32771648341009       -1.52030996112830
C           -2.02350740541165        0.52116125054758        0.00754291313495
N            3.71211975538770        1.99739240175281       -0.62089845849188
H            4.70474625293503        1.90921363604876       -0.48404514433817
H            3.38325302965903        2.73727040355842       -1.21553949182485
H            1.27521318113702        2.73204071090693       -1.56822498089599
H           -2.18269471111312        3.77493928430506        0.92585356393421
H           -4.35669415389628        2.34963250129277        1.52991007688883
