28
 energy: -52.231234259332 gnorm: 0.000969975461 xtb: 6.6.1 (8d0f1dd)
N           -1.65412743755768       -4.46814032647009       -0.14654073986200
C           -1.72948847833059       -3.32334180758369       -0.07820021675508
C           -1.77671747116807       -1.92798178310364       -0.01331097223414
C           -2.88557851689717       -1.15131528319542        0.19067521716965
C           -2.48971389998069        0.21744220068709        0.17562942797025
C           -3.42463916291395        1.23343303819610        0.42030478321652
N           -4.26508932702382        1.97284596435899        0.67611642809034
C           -1.10878244470226        0.31254092338776       -0.01898227234801
C           -0.60347544840994       -1.07148197578226       -0.12877566556998
C            0.59376507941115       -1.67195248109375       -0.35310840664059
C            1.97491663631981       -1.29480030090060       -0.41065030673692
C            2.58292967715188       -0.09909957602431       -0.02684878750191
C            2.09738337983316        1.27844155850833        0.11548949664603
C            3.25403689773292        2.01331816589796        0.42618873565982
N            4.33682849248978        1.24449017226590        0.54960443584545
C            3.96842105367687        0.00863473710724        0.24883975267160
H            4.69380855453243       -0.78348674525326        0.30839857920034
H            3.31131904322348        3.07199533635297        0.59926515261321
C            0.88392069056345        1.93725547064538       -0.05822318530088
C           -0.44630792836604        1.55500735626667       -0.14395097846686
C           -1.28555768535724        2.68283391419315       -0.36712958377044
N           -1.86239079564247        3.64045516040682       -0.62140372447508
H            1.01032129882571        3.01699267046058       -0.08081174137058
N            2.77711196822622       -2.29989525135578       -0.80988646665224
H            2.40432221802075       -3.21398030066550       -1.00520760340113
H            3.77062545284093       -2.16392969996396       -0.87336500329747
H            0.48751114914364       -2.74881161004193       -0.48074937446607
H           -3.89295672924081       -1.49427368230250        0.34061369526660
