28
 energy: -51.442547496522 gnorm: 0.000815391339 xtb: 6.6.1 (8d0f1dd)
N           -4.51399392902635       -2.71448626156981       -0.13803743627065
C           -4.00561739235998       -1.68653062696985       -0.21932637434790
C           -3.39418168260037       -0.43691911591530       -0.32927603770736
C           -3.94479990658104        0.70487554966693       -0.95892256089414
C           -3.05567080401676        1.75629413438568       -0.91341234583164
C           -1.90271237216540        1.35819853991694       -0.21106621933330
N           -0.84117447372701        2.06948660015671       -0.09327318339455
C            0.42462219022122        1.96465753220093        0.22413393568345
N            1.00073435484077        3.11701790094023        0.63717794545005
H            1.99057560228920        3.15907201826924        0.79669306060823
H            0.45404944253498        3.96053210066123        0.65678294342834
C            1.28155343161336        0.83984586426056        0.02465372368409
C            2.62797009359296        0.95770427638343       -0.29908396050071
C            3.25195578621153       -0.29690089689735       -0.16949838614857
C            4.58956810349772       -0.59218128346617       -0.42984733870096
N            5.68447569217332       -0.86531531761690       -0.65284636414065
C            2.30173555845766       -1.21417014452643        0.32628525469911
N            2.56265191034169       -2.50937030030183        0.64540008553876
H            1.79678980041944       -3.15048393837445        0.75708307787757
H            3.43532212807374       -2.89732070997032        0.32714482036724
C            1.05208666852137       -0.54758583308235        0.43007942446739
C           -0.07786515962744       -1.13252096312737        1.00830698484907
N           -1.33224607984461       -0.94172926689635        0.74950578151150
C           -2.13190141369927       -0.10121535712648        0.19148879115365
H            0.09234279968621       -1.98140377961045        1.66871000115073
H            3.12420927920931        1.84551161577807       -0.64807304069063
H           -3.21327200520913        2.74322885768926       -1.30313272339530
H           -4.92127922832516        0.72559234944677       -1.40982020821288
