31
 energy: -53.809859311260 gnorm: 0.000816577736 xtb: 6.6.1 (8d0f1dd)
N           -1.64377562437547       -3.59955527881614        0.91730202304317
C           -1.17848187930961       -2.58260819152421        0.63951951165833
C           -0.58755777528007       -1.34167371578208        0.32672235535851
C            0.81544130110856       -1.33985948338991        0.31245842540731
N            1.42662437229081       -2.50810638822715        0.62630200579095
H            2.43082173762998       -2.55298960378041        0.63714892901142
H            0.88261631812152       -3.31930260791303        0.86713957717108
C            1.69919713200146       -0.29449970571760       -0.08259444869107
C            1.70107505897816        1.13040297136900        0.18304372625889
C            2.98348526605885        1.55955705281260       -0.23803474687257
N            3.69929144787821        0.58422089115744       -0.76765382113152
C            2.96884259919898       -0.54119137169348       -0.63396358051386
N            3.51292322547235       -1.75336567477226       -1.04561655492393
H            2.87123387853680       -2.34877723570006       -1.55296504019615
H            4.36587394260354       -1.59134000319268       -1.56529478064116
H            3.35400250395517        2.56901552317491       -0.27741584497068
C            0.76433371462926        2.03350134935164        0.71012261534500
N            1.26681592992105        3.13455605194214        1.32137720494319
H            2.26239220749723        3.26260178543466        1.37047712443157
H            0.66973291557364        3.92073307231512        1.51271052408635
C           -0.63766359235813        2.03554754063646        0.55127300726962
C           -1.55315761487959        1.12827334325919        0.09297926675203
N           -2.79188212702179        1.60381322707887       -0.19023295153661
C           -3.55145423312067        0.55639388309446       -0.49438062409506
C           -2.84427172414247       -0.67597227526345       -0.36950731899813
C           -1.55229617581635       -0.35917139831558       -0.02424580143932
H           -3.25622731114117       -1.65208173685666       -0.53672740784739
N           -4.82714735116386        0.69358190073299       -0.88188280988676
H           -5.22990609764845        1.61313083460500       -0.90586322476762
H           -5.40264678325039       -0.11214823543686       -1.04283811882817
H           -1.09579208424807        3.00175081811699        0.74107562251434
