31
 energy: -59.418109216903 gnorm: 0.000849062060 xtb: 6.6.1 (8d0f1dd)
N           -1.96161224046013       -3.77322484335805        0.35832705571922
C           -1.36526283319716       -2.80126907189079        0.23459418996749
C           -0.52234313585481       -1.66304622406590        0.11972594931883
C            0.80023422976932       -2.04329078824495       -0.19198351040325
C            1.99163046200377       -1.38324501646492       -0.38394709575568
C            2.50544989763074       -0.05706450159714       -0.07082864044834
C            1.84628960564346        0.97935752445543        0.63575183431136
N            0.61423158994206        1.36324885507671        0.45454320329643
C           -0.55130563768632        0.94732661883010        0.09761453970788
C           -1.59125832699109        1.84626316343246       -0.23340848827700
C           -1.45990186767031        3.21875579202843       -0.43456800267409
N           -1.38521336042592        4.35328907627277       -0.60881223018780
C           -2.81346309116492        1.14172653672042       -0.21847849020512
C           -2.54638478068181       -0.23549517053199        0.06201429656135
C           -3.59718833562348       -1.15196706193367        0.11309166698232
N           -4.56530846393015       -1.77340504123816        0.14183246274149
C           -1.15900087826208       -0.42157856249150        0.16924936261140
N           -4.02546640079548        1.65301119442615       -0.43198131032836
H           -4.83719078886668        1.05992864371793       -0.36827822288819
H           -4.13379603403031        2.62699071840174       -0.66063144838677
N            2.57668003785913        1.75671099772050        1.46540573652814
H            3.50364206357854        1.47199871805400        1.72844799262658
H            2.10610455894508        2.47330118358863        1.99230599264243
C            3.86392771348839       -0.10997660939456       -0.39541043511012
N            4.22330211707332       -1.33132419708330       -0.88769477597259
C            3.15112566335974       -2.08083703577632       -0.85608518874210
H            3.17893479954107       -3.10210566004224       -1.18883035645589
N            4.80998766524834        0.86746333204876       -0.26442438698703
H            5.66141173439850        0.66574692239867       -0.76758983669286
H            4.49188748801706        1.82192959383793       -0.33339362776460
H            0.88207238014535       -3.11286922539482       -0.37130232824126
