26
 energy: -47.994332148141 gnorm: 0.000575469995 xtb: 6.6.1 (8d0f1dd)
N           -4.43091757996311       -2.62789338802652        0.30928837076357
C           -3.95762879952357       -1.58095025019733        0.27754139612445
C           -3.38581613938900       -0.30779157179093        0.25009784261134
C           -4.00405863700090        0.89339295805788        0.67237299821050
C           -3.12752093489843        1.94646938648034        0.54550344794815
C           -1.92274058133217        1.49321929158859       -0.03274582305238
N           -0.85425439278303        2.19245248621668       -0.10976516366059
C            0.42613963680475        2.10467534199788       -0.31038975342210
C            1.31711665248111        1.05233961138205       -0.09541352913478
C            2.69628099652181        1.28045850317068        0.07527072946636
C            3.36912154242950        0.06490487003680        0.10625872685916
C            4.74013220421001       -0.14700803527150        0.26394966053953
N            5.86008139548341       -0.36551492987883        0.40464633444981
C            2.42057677462578       -0.97707473912362       -0.12358381660807
N            2.74041906035826       -2.28331257973141       -0.21111555518354
H            2.02594899298399       -2.98578112702284       -0.27555989405435
H            3.68317842447921       -2.57212153936760       -0.01524637571251
C            1.13785413519515       -0.39641467804151       -0.23518363813845
C            0.03284035952854       -1.10204129685986       -0.73131181344439
N           -1.23019724613382       -0.89917032294455       -0.56954024981300
C           -2.10222949831447       -0.01432409581778       -0.24398446021964
H            0.24772673684038       -2.03451287126019       -1.25152324604657
H            3.15319532729392        2.24555712498899        0.19233887314132
H            0.88159631204916        3.06647632340317       -0.53768535511330
H           -3.32134143651918        2.97377270385022        0.78688979827787
H           -5.01180301802612        0.95046842566224        1.04361854591074
