30
 energy: -55.671442621012 gnorm: 0.000933657680 xtb: 6.6.1 (8d0f1dd)
N           -4.65027567179887        0.03518262992600       -0.82846955184247
C           -3.61397655493615        0.49599789566153       -0.64612355721608
C           -2.35924523025825        1.09839644701742       -0.50286651125556
C           -2.07965497759147        2.43312715032529       -0.89807759104911
C           -0.74911557543830        2.69306045067585       -0.67970429166588
C           -0.10558262615623        1.52102968759026       -0.22375240005980
C           -1.16987057498244        0.47844991656334       -0.10419126964824
C           -1.16331523596742       -0.79269995752749        0.49956625985683
C           -2.37629068617745       -1.14202505226443        1.14231031906100
N           -3.28683453071977       -1.45520825531442        1.76969394238923
C           -0.19576827824145       -1.82371810376125        0.48196895393536
C            1.06562358387377       -1.79170911780119       -0.16809943727049
C            2.11116986698628       -0.79257931394050       -0.19574803148404
C            3.20008287878383       -1.45235933928630       -0.81134737597049
N            2.88365384897525       -2.67503106160773       -1.20384598100750
C            1.64675971316700       -2.91854196057495       -0.76214903327927
H            1.17734938572769       -3.86348736813713       -0.96858065089681
H            4.14904374190370       -1.02309474002678       -1.07906888881472
C            2.21481403673486        0.52169705827614        0.29561462105288
N            3.42469717585440        0.89327460435936        0.75566337249185
H            4.17624192015169        0.22435265514395        0.74925301827779
H            3.63362524992173        1.86021788013600        0.94925692806085
C            1.22266880117156        1.54520357833512        0.18721162371972
C            1.72980786255010        2.85220039871251        0.40633914563298
N            2.17490303147271        3.88926857033926        0.61952771383902
N           -0.53663873374604       -3.00302136472696        1.03685484402069
H            0.09934961485117       -3.77905016509456        0.97099529247254
H           -1.46898750138326       -3.15744371109365        1.38797956601120
H           -0.24717564357984        3.61988917362085       -0.88363975494098
H           -2.80641865324845        3.10852052957422       -1.31095759462027
