35
 energy: -66.313480314625 gnorm: 0.000561360468 xtb: 6.6.1 (8d0f1dd)
N           -3.77078235922114       -3.52820975693095       -0.54864131223066
C           -3.36430214682660       -2.46316022771632       -0.38937355404965
C           -2.91925923424800       -1.15648755085137       -0.20946877178644
C           -3.69106198699835        0.00001052061343       -0.49261745357898
N           -4.94134589104270       -0.00013901577121       -0.95845134195424
H           -5.41354633835293        0.87017801150077       -1.13798559316180
H           -5.41334457291320       -0.87057436519647       -1.13794427057060
C           -2.91947640810640        1.15668601804084       -0.20960108682302
C           -3.36485317304292        2.46326256080507       -0.38937991006776
N           -3.77149740361053        3.52824353655291       -0.54885654648457
C           -1.66070038913183        0.75791536598460        0.28131146279940
N           -0.73271302212892        1.58558696891114        0.61741472434376
C            0.57027875923171        1.61087634946091        0.78871011858505
N            1.00431458998935        2.75500433176797        1.38588668221455
H            1.94835218056738        2.81132131426700        1.72550740756722
H            0.30511931161212        3.36838012400410        1.76957122200344
C            1.54570600277734        0.73266013596275        0.25674557044397
C            2.83225944685962        1.14536904053295       -0.13824392803317
C            3.60604455718306       -0.00025629643192       -0.42605921967534
C            4.91290390106952       -0.00092816963192       -0.90172922943231
N            5.98623312650690        0.00075112522074       -1.31966385334952
C            2.83227825172640       -1.14548299533510       -0.13675294116739
N            3.30399437424947       -2.43503471154947       -0.22714838253364
H            4.14338702580205       -2.53053296239010       -0.78081619225151
H            2.61025625325576       -3.14518061797596       -0.40908139208869
C            1.54573685333212       -0.73228039117907        0.25763251561287
C            0.57019552623738       -1.60992205756551        0.79031659621014
N           -0.73268685441568       -1.58478730544661        0.61842404364178
C           -1.66064198357810       -0.75740833947286        0.28158612331115
N            1.00407744240569       -2.75345946256902        1.38877968669904
H            1.94796159664206       -2.80916805160034        1.72911921314578
H            0.30474834856193       -3.36627962742061        1.77313895539470
N            3.30388672505660        2.43486478687302       -0.23031002718101
H            2.61010239152107        3.14468074911326       -0.41332058265515
H            4.14327293182859        2.52967886532459       -0.78409285729730
