33
 energy: -58.054691870616 gnorm: 0.000314875732 xtb: 6.6.1 (8d0f1dd)
N           -0.88249398587742       -4.38083456299857       -0.02249136780393
C           -0.64080511416148       -3.25643054622206       -0.02149732473264
C           -0.28410717545402       -1.88766108320743       -0.01476196098844
C            1.09661062884754       -1.71681881010417       -0.02380435933592
C            1.97584381735418       -0.65215818937211       -0.06980929237857
C            1.87492673259260        0.80895116059127        0.08175625816590
C            0.83012110118559        1.65511292610837        0.42606302554165
N            1.15958233956492        2.91343069721656        0.83627318656322
H            2.09558922914505        3.07776311497034        1.17222394032231
H            0.42772125387391        3.51009074411559        1.18438581054380
C           -0.58668636819108        1.47840650318637        0.31458281083753
C           -1.46977301084484        0.47421740577560        0.07300368125167
C           -1.38921628902207       -1.00273845169322       -0.05747171587549
C           -2.67650648000522       -1.46697930326268       -0.21459111597782
C           -3.59618777303030       -0.38071820506159       -0.21051095996566
C           -2.87079380269784        0.79855665550989       -0.02876809070693
C           -3.41289903688161        2.07399425364842        0.04422019839467
N           -3.87509464547396        3.12872864812869        0.10983374934219
N           -4.92528092944596       -0.48958082015422       -0.35950465699332
H           -5.35149911095329       -1.39127176626877       -0.47618540545081
H           -5.50421029087886        0.33180039991125       -0.34003900430786
H           -2.96132724326649       -2.49633203876239       -0.33100364273936
H           -1.09609389322489        2.43364941760538        0.43749630061310
C            3.22717245100465        1.25112130491014       -0.05870091467684
N            4.08554033066494        0.25283169216440       -0.24763692435221
C            3.37086544817834       -0.88443487560846       -0.22631140089818
N            4.01918729952537       -2.07214447780771       -0.33482045674101
H            4.98405426770786       -2.00561387782068       -0.61218812823144
H            3.51428100469781       -2.88319802290620       -0.64766721948009
N            3.70383024020064        2.54732425453226       -0.03779160857829
H            3.16184188617454        3.20939874371155       -0.57764758936446
H            4.68625706965812        2.56331041524780       -0.28187132343036
H            1.61042808973610       -2.67558903808314       -0.02998352486550
