31
 energy: -54.597889058769 gnorm: 0.000683899163 xtb: 6.6.1 (8d0f1dd)
N           -4.95994831183360       -1.54440231820257       -0.21734541035727
C           -4.12552763340693       -0.75262735649176       -0.24980240051147
C           -3.08715804122061        0.17461416202547       -0.25776279630396
C           -3.13290811332236        1.51549029373094       -0.60881216200127
N           -1.94223055166032        2.11693564242247       -0.47673002306045
C           -1.04975470175516        1.19649030251148       -0.11129486369210
C           -1.71517576695346       -0.11767666703223        0.05094552747785
C           -1.33206496435030       -1.32052697828571        0.56930437143045
C           -0.08510569452559       -1.97483283435527        0.72676635681507
N           -0.16843261275421       -3.17091471808747        1.36305259407255
H           -1.06657715339240       -3.57796986706196        1.56066737397586
H            0.64678020902596       -3.75144698606775        1.44494591242148
C            1.15841509947081       -1.63378114507206        0.17516209698275
C            1.81289406557438       -0.35161344971156       -0.09215014236121
C            1.48289200073162        0.97158108004457        0.31200429672821
N            2.52947001177822        1.73409574947728        0.69616627522899
H            3.45061606361829        1.33229906945293        0.73745090737472
H            2.40044057978511        2.71218089795318        0.89869627850844
C            0.23481183994160        1.63339058361376        0.23881623391578
C            0.28694725269741        3.03528055463740        0.43528194962419
N            0.39539101504597        4.16227329684785        0.63271360574037
C            3.07701112573069       -0.65820433642981       -0.62761889563627
C            3.21089326572872       -2.05439141775507       -0.72375561794199
C            2.08702107464498       -2.63808285948476       -0.18696581635808
H            1.90206534307948       -3.69670141440894       -0.16976981727809
H            4.05449651897741       -2.56588643117794       -1.14982382763759
N            4.06334963916280        0.23800176642216       -1.03332314628389
H            3.71509561598600        1.09433414489699       -1.44342345708697
H            4.75942463062355       -0.19806038481605       -1.62250874911533
H           -2.17322538008463       -1.96197818748160        0.82586777972070
H           -3.98681838084404        2.07225912618590       -0.95048212298986
