30
 energy: -55.688772226364 gnorm: 0.000729460268 xtb: 6.6.1 (8d0f1dd)
N           -1.25288856166224       -3.89356822842079        0.31048085586479
C           -0.80334157332625       -2.83920513709041        0.26888786788218
C           -0.13515406139415       -1.58485749717065        0.22670002543580
C            1.23940365169588       -1.76735034092699       -0.07227192628538
C            2.35007240490080       -0.97393063925204       -0.20387009053014
C            2.65967611779775        0.41753786971504        0.15962726112513
C            1.81216432848736        1.37969570732874        0.70104091007317
N            0.55078092498123        1.56924512951730        0.50724951098410
C           -0.54341805119992        0.97138446408745        0.16993549828538
C           -1.69847933842760        1.68088954788557       -0.21878645122392
C           -1.77436424307008        3.03287674981617       -0.54515121481390
N           -1.88041858795076        4.14204327972523       -0.83181189341639
C           -2.81436994471718        0.81021644926642       -0.12729016092891
C           -2.35699505717055       -0.48300666141523        0.24512820402999
C           -3.25856236080243       -1.53197730844220        0.42570957058021
N           -4.11416646995248       -2.28722565459133        0.57146384261753
C           -0.94744933028875       -0.46151411550706        0.32055291926296
N           -4.08628166697049        1.14274495825397       -0.35594900804110
H           -4.81443964272101        0.46040532504660       -0.22167469165004
H           -4.32277353545026        2.07505182656973       -0.65085018495441
H            2.27088342986972        2.17198869370297        1.29229577722744
C            4.05139958462492        0.57835990037119        0.02002453964511
C            4.60564369024914       -0.64410840724840       -0.44420125815236
C            3.60268179790638       -1.56601205473257       -0.55502155576821
H            3.71622854010959       -2.59078491616204       -0.85695832911873
H            5.65031510198953       -0.80530525819486       -0.63776464412028
N            4.77281653304698        1.69387412839291        0.28127847760192
H            4.30172107550622        2.56567364727150        0.44620958031202
H            5.72299189935463        1.73819532535633       -0.04278797908761
H            1.45493560939136       -2.81378401774932       -0.27755742043519
