27
 energy: -42.915364027574 gnorm: 0.000857811206 xtb: 6.6.1 (8d0f1dd)
N           -2.86089912777156       -3.10953819328258        0.08470550579097
C           -2.11924749800814       -2.23366127862230        0.10514002675250
C           -1.15764720285743       -1.18695345370399        0.11705956559398
C            0.13069239594577       -1.67802246340403        0.15737488858661
C            1.42616193613805       -1.14765068036286        0.18731401110321
C            2.49321453460607       -2.02595026547637        0.38836944561317
C            3.69946937377356       -1.32592583023544        0.33734829913205
C            3.42419761058192       -0.00573063527613        0.05135718307110
C            2.02018248088715        0.18032805834194       -0.04282117659468
C            1.46721393618508        1.42450887030426       -0.34607635555212
N            2.31961746922302        2.38113385925672       -0.80111606550893
H            1.99885295231796        3.31768187704483       -0.97174120414701
H            3.27435110800840        2.15580938904308       -1.00774168088092
C            0.14356389338868        1.93340045864649       -0.16228716675198
C           -1.10499909059489        1.45664887756818        0.07821689713902
C           -2.19158831878911        2.38943945919242        0.20734222759839
C           -3.36144941822040        1.70428891159625        0.32476833086720
C           -3.08414374820740        0.31129904819585        0.27941948765722
C           -1.72861892475795        0.11061205708520        0.15021201832365
H           -3.82569606668544       -0.46262311530715        0.35047025469988
H           -4.34355098890588        2.12788892529873        0.43431052760675
H           -2.06871733378454        3.45676480445350        0.19997865131883
H            0.14510788222168        3.02024319804495       -0.23913302233658
H            4.17599948588545        0.76084185742149       -0.01014465297779
H            4.67705914062489       -1.74578717444385        0.49103640777589
H            2.39168681419548       -3.07952931531677        0.57397843225355
H            0.15447019170030       -2.76448105346234        0.21222469416603
