30
 energy: -54.094339123332 gnorm: 0.000798556626 xtb: 6.6.1 (8d0f1dd)
N            2.86876051996357        3.06024606476491        0.17897055833882
C            2.09592077036268        2.20999691253630        0.14309857792011
C            1.08837163319377        1.21264919160226        0.13993148774398
C            1.62982988130394       -0.06562891973597        0.07868036346943
C            1.01770542875501       -1.44268932052624        0.21517966585914
N           -0.11521744849266       -1.82226831185434        0.75164875298156
C           -1.31082154496685       -1.32719243505596        0.86938072290216
N           -2.11682515270887       -1.95563749966049        1.75565626024575
H           -1.75160979902063       -2.71901069567556        2.29728438426335
H           -3.07639842609068       -1.67326013250083        1.84721624262515
C           -1.91542098033331       -0.30991889907443        0.06697370936712
C           -3.23906105603418       -0.33203823674782       -0.37911043862341
N           -3.58527018244414        0.81798128962374       -1.00100873050564
C           -2.54642438666400        1.62546835105287       -0.89602293984282
C           -1.42970619954901        1.01289759136489       -0.26879508037717
C           -0.24761581993328        1.71352377198947        0.02410089046804
N           -0.36388750324643        3.06000367461948        0.11073385138588
H           -1.25709120817342        3.48544854269754       -0.06261726395853
H            0.45939174942991        3.64030355709129        0.12236976841968
H           -2.58354624038989        2.59367888520306       -1.36477293082445
N           -4.16603092917521       -1.35509151472729       -0.24445969409336
H           -3.78245124691814       -2.28479494546793       -0.34781819947136
H           -4.96355467004165       -1.19993188881881       -0.84626562516990
C            2.03662999836389       -2.30450315064608       -0.14471064905920
C            3.17574498995772       -1.50251239709144       -0.37059317931840
N            2.92978562667292       -0.18721300350821       -0.20505768518465
N            4.40102294205651       -1.91537425975098       -0.70876816432584
H            4.59096766191642       -2.88339996506833       -0.89282397340088
H            5.12437884985693       -1.22567794004873       -0.81572287634805
H            1.99303900994804       -3.37358428528606       -0.17984838268634
