29
 energy: -55.965346295435 gnorm: 0.000832577479 xtb: 6.6.1 (8d0f1dd)
N            0.57486466941972        4.49182192520822       -0.30562683750567
C            0.30330951975897        3.37906770094834       -0.26179518472847
C           -0.12547849780850        2.02177731330245       -0.20229580033388
C           -1.53104743942355        1.90852755936713       -0.16748314441377
C           -2.40579655946456        0.86325128165380       -0.10461813237746
C           -2.29237785060229       -0.60706945615805       -0.03214734102607
C           -1.24362624045814       -1.49676234794081       -0.00626658723576
C            0.15253652108595       -1.41289611942033       -0.04697285626311
C            0.72078303045214       -2.71194843053179        0.02681178744333
N            1.06969703057200       -3.80338120432384        0.09418244106960
C            1.07920261964537       -0.35775507486402       -0.14087493070618
C            0.94005992055610        1.13054388572999       -0.20156985917260
N            2.15701026057024        1.70504982612521       -0.26959190069877
C            3.06944066373309        0.74224067698917       -0.26467622549340
C            2.45638012972385       -0.56481245923335       -0.18495086398044
C            3.25229407071630       -1.70825957172660       -0.17350273823645
N            4.05202516639140       -2.53524398989385       -0.18209596293366
N            4.37350558159614        0.97950117375297       -0.32675003026929
H            4.69445846461554        1.93180266316206       -0.37834023626665
H            5.02964017683786        0.21580588969061       -0.31977228183673
H           -1.56916583398890       -2.53276730376210        0.06060249373114
C           -3.64876472646671       -1.04227359161096        0.01898870372404
N           -4.52319894546391       -0.00565188742556       -0.01816365268096
C           -3.81210229057251        1.09569470566803       -0.08880108090573
H           -4.29118150839704        2.05702436086916       -0.12777421289479
N           -4.12897402533283       -2.29269462133939        0.08232942490020
H           -5.12509984856174       -2.40641492757845        0.14190992020326
H           -3.53158365758445       -3.09414142138595        0.16932833442268
H           -2.02136476655213        2.87855685422917       -0.20006672393443
