33
 energy: -53.234494090746 gnorm: 0.000984235556 xtb: 6.6.1 (8d0f1dd)
N           -1.66307017498435       -3.51947452700982       -0.95290745513140
C           -1.19376960304779       -2.50580863406929       -0.66930043992750
C           -0.58930408836862       -1.27821425680206       -0.33354222465184
C            0.80795647570353       -1.28909718124058       -0.32448234520180
N            1.41883410795288       -2.43020244524313       -0.73863183493380
H            0.87313152727366       -3.24157392486803       -0.97474598209531
H            2.41849257162898       -2.50305136177475       -0.66801847488159
C            1.70325529595447       -0.28298915317675        0.15992382176397
C            2.91201560501474       -0.60973873998276        0.78759132485618
C            3.68597167006996        0.55692067593096        0.93414808796765
C            3.01742591705230        1.59652123286164        0.33482029667139
C            1.75376744126399        1.13957038170695       -0.12300844977929
C            0.84751532660055        2.01268724104714       -0.74298156395697
N            1.39094834819565        3.08416041751259       -1.39211378532433
H            0.82327895462913        3.88887851275581       -1.59254936710143
H            2.38804372720876        3.20311703419719       -1.37385835255647
C           -0.55946438674455        2.04069962535229       -0.64701230249149
C           -1.51387812134896        1.19165202036946       -0.14700804276201
C           -2.81428412848961        1.65203821713740        0.15729964017845
C           -3.59081364056025        0.58360272174103        0.56184986190927
C           -2.80744305686984       -0.60829910382610        0.45246197081942
C           -1.54017854619033       -0.28505803419148        0.04439393684018
H           -3.17435771554051       -1.59709997230722        0.65852668567768
N           -4.88814694761566        0.60734307831628        0.94955343850386
H           -5.32503042490224        1.49032480702244        1.14697868695757
H           -5.28532394119234       -0.21675579736112        1.36463947754153
H           -3.12148213046275        2.68100031481929        0.12749995340611
H           -0.96817109015640        3.00979066585951       -0.92729614822509
H            3.35033216231641        2.61982040185377        0.33932891407598
H            4.63686111302871        0.60889246416705        1.43400289653017
N            3.32286757564083       -1.87611823204653        1.22597761405886
H            2.56878091363680       -2.44690761399960        1.58569998991170
H            4.08025264088484       -1.81458254813540        1.89316636601085
