29
 energy: -50.351979801770 gnorm: 0.000647947229 xtb: 6.6.1 (8d0f1dd)
N            3.18093549590125        3.03496052627098       -0.38969320236509
C            2.50401100923295        2.11283321132062       -0.29483327680609
C            1.57284978868877        1.05029573257015       -0.16274177855484
C            0.25397160799606        1.50953946136997       -0.03549107894625
C           -0.99259827586374        0.94091971176438        0.01294160557000
C           -2.15959428734960        1.77428805758601       -0.02426816171398
N           -3.28944044526891        1.06725251559017       -0.06658440932854
C           -2.94804834926945       -0.22555605477369       -0.00220560276275
N           -3.95990327620783       -1.17610887116529       -0.02186494587687
H           -3.82769754535285       -1.90987972527418       -0.70735847977034
H           -4.85418187231607       -0.71507359601901       -0.14189201708759
C           -1.54834237397843       -0.43261290135894        0.08177357313681
C           -0.97612011431023       -1.67234450953285        0.37077713222499
N           -1.83319925555575       -2.66751548562142        0.72292684112421
H           -1.45793258433520       -3.54315253861805        1.04523434733783
H           -2.77464202727993       -2.42257955192966        0.99080800160769
C            0.37643636489652       -2.12293964530132        0.29385795511929
C            1.60006976983202       -1.59394309512047        0.00697622879928
C            2.75521053416654       -2.41952457044631       -0.09072949902215
C            3.81612057666601       -1.59715995987256       -0.36441493865077
N            3.46481261500184       -0.28950940000314       -0.41882777554506
C            2.15812712903828       -0.21750627810801       -0.20964592992371
H            4.84307120645310       -1.87317802177033       -0.52727284995981
H            2.77002077014426       -3.48783444738946        0.00635766193842
H            0.43713918308286       -3.19417397772111        0.48082165227921
N           -2.21837320081934        3.12781932915197       -0.01000355794641
H           -3.11924898652465        3.52119963657733       -0.22407238068291
H           -1.41218171852792        3.66631282535624       -0.27548305112323
H            0.22362078236052        2.59637585226985       -0.01747110407069
