25
 energy: -48.277998478862 gnorm: 0.000538274193 xtb: 6.6.1 (8d0f1dd)
N           -0.01832661294382        4.13882733964159        0.38065233216306
C            0.14103366433200        3.00529369304101        0.32933678859324
C            0.40593715557868        1.60739304158624        0.28680829781229
C           -0.74550392004045        0.82559984786553        0.36583505044049
N           -1.93872391156447        1.41314795439034        0.29075320201341
C           -2.83662760173732        0.47450523034012       -0.04239696981440
C           -2.24072098815797       -0.82310126778295       -0.15967849134237
C           -2.93021505326106       -1.98718503462992       -0.48846724533722
N           -3.54695546941845       -2.91367678021238       -0.77610604706316
C           -0.90212023604539       -0.66755880147885        0.22005873999479
N           -0.10320891310955       -1.63392807750450        0.54803237933037
C            1.13811652275107       -1.90903720413295        0.69600335650281
C            2.25897561889585       -1.26869732830438        0.13385350106607
C            3.49138727319483       -1.86887225269378       -0.08397550888675
N            4.42463822876990       -0.99212852738421       -0.52034009649222
C            3.85118299319368        0.18589413697191       -0.56262999228939
C            2.46735288334518        0.14447562069331       -0.18768428620087
C            1.74544983241659        1.30281710281124       -0.02001367173162
H            2.33383688314014        2.19860073949598       -0.20676202025581
H            4.39765630287095        1.06312358867846       -0.85799893745470
H            3.73734090910508       -2.90828533004876        0.03297026474350
H            1.32848703661097       -2.81680106321080        1.26453477910277
N           -4.11794880174279        0.76948102477586       -0.22977305602604
H           -4.42463123753404        1.71573808048151       -0.07771182236096
H           -4.76838178514970        0.06468808031195       -0.53354046630805
