29
 energy: -55.188266913665 gnorm: 0.000926144587 xtb: 6.6.1 (8d0f1dd)
N            2.33107115432616        3.62928690488912       -0.56080691816597
C            1.85990224701233        2.59195768371878       -0.42642225552344
C            1.21291462742914        1.33568038892622       -0.29735915469707
C            2.08339966196424        0.27850171978674       -0.03876990869479
N            3.35312370220105        0.48508207727114        0.29179268824741
C            3.78700390804060       -0.70636407379371        0.76410127750742
N            2.90163766480055       -1.71919436291061        0.73851512879485
C            1.81702451285175       -1.20054379498001        0.16753239710404
N            0.85254729419807       -1.92743180178342       -0.27983958081015
C           -0.35829321733955       -1.81003941290532       -0.73763007837060
N           -0.73151130623493       -2.74633726376200       -1.63346591857787
H           -0.07758586573953       -3.46838373334322       -1.88379268298487
H           -1.67985731928697       -2.79254447300251       -1.95870579854400
C           -1.36517344032299       -0.89416865121168       -0.29122959694972
C           -2.69810367685748       -1.22135143138492       -0.17327031023967
C           -3.44538804208915       -0.06041908757415        0.15114597241022
C           -4.81700933354301       -0.00043620306210        0.39647285397979
N           -5.94492029016880        0.07435848687784        0.60989977010035
C           -2.57267753027088        1.02980086743490        0.16943124038974
N           -2.94474278541517        2.31509584437721        0.38590075647637
H           -3.88449982308790        2.47893912994649        0.70610292454667
H           -2.25697812942669        3.01268609413511        0.60853294738381
C           -1.23343674208497        0.54972541351752       -0.08781390070548
C           -0.18993993686091        1.43203330136279       -0.24036627813178
H           -0.50477402317055        2.47334641369829       -0.26258052278459
H           -3.12419451785558       -2.20526021791293       -0.25391354967479
N            5.02070189031248       -0.85423039249218        1.23252381125431
H            5.30149895714734       -1.74124260360894        1.61018418050527
H            5.64996661077074       -0.07186539781813        1.20015723505366
