29
 energy: -51.153285637858 gnorm: 0.000591205153 xtb: 6.6.1 (8d0f1dd)
N            5.68381066939344        0.05436106255207        0.31215107132203
C            4.56112253570161        0.20050388764558        0.11356852882423
C            3.18627687340076        0.32381759461043       -0.10189720354154
C            2.48420209004870        1.46581408438127       -0.46561788467620
C            1.10605185116099        1.18443362195182       -0.48327008058989
C            0.23068052309931        2.21722599197878       -0.79763493163735
C           -1.13024857148411        2.42567248882716       -0.66507303897994
C           -2.15779462460540        1.67217991593124       -0.11957641716163
C           -3.42053325939251        2.20093217538396        0.16910808290506
C           -4.17953296747299        1.16840660158991        0.71071079700588
N           -3.52622154369376        0.00510873527453        0.72510161722930
C           -2.29444164315571        0.22959214651960        0.23794616485423
C           -1.51425404628001       -0.89654421751372        0.00526389308559
C           -2.26977228578758       -2.08712064867701        0.18794751680301
N           -2.81361291381679       -3.09249475861315        0.30175913304294
C           -0.14261437411924       -1.13027864053900       -0.31811096841971
N            0.14846154634917       -2.39917138343449       -0.67018325236397
H           -0.57875757723859       -3.09464883075341       -0.71508531375844
H            1.09001911612747       -2.64494197184906       -0.92894473485386
C            0.96298181445880       -0.25666207540490       -0.19632608021569
C            2.26071362001650       -0.74478194540482        0.04048767733448
N            2.64833568961238       -2.03456283189684        0.37006607646592
H            2.02495081894688       -2.53301371356374        0.99052468571111
H            3.61184662547347       -2.08844933263353        0.67480772201371
H           -5.18353297823396        1.22352862275185        1.09252294875605
H           -3.72310631220721        3.22228248824125        0.04469511747728
H           -1.45288462667473        3.41977078252746       -0.95866141084302
H            0.76100675985665        3.09728257990811       -1.14950767444727
H            2.91973260830608        2.43020825031353       -0.64791696013760
