27
 energy: -46.920926159466 gnorm: 0.000713862557 xtb: 6.6.1 (8d0f1dd)
N           -3.50602730467387       -2.78822176653921        0.19525210435112
C           -2.99337073300197       -1.76411492782554        0.07252282334676
C           -2.44118476822895       -0.49452729296270       -0.05904297040795
C           -3.17112368007176        0.71927715612870        0.14870022992260
N           -4.47170143347741        0.76069268354234        0.47165995308233
H           -4.94193150868772        1.63998846895165        0.59064893524307
H           -4.99302462036969       -0.09529697059013        0.55625843302510
C           -2.30924962291152        1.80369748704431       -0.01420452554184
C           -1.03520379308160        1.34570385399355       -0.35765569986277
N           -0.01228927967295        2.13641631773682       -0.43604046217999
C            1.29074659170676        2.04855477448716       -0.43128336760190
C            2.17528074586612        1.05144571395690       -0.03439623633674
C            3.52770971929049        1.34727625037249        0.26255134351690
C            4.23040781760388        0.18273568774562        0.47363753633267
C            3.36723914027477       -0.90531536937112        0.23548992150317
N            3.70652241876917       -2.21510252831730        0.38043617598850
H            4.68600350298481       -2.44116738212758        0.41325821325463
H            3.09498030610381       -2.91480130499703       -0.00540173591278
C            2.07451758582430       -0.40925021928574       -0.06567707183766
C            1.07069456255069       -1.20635071845419       -0.62093305916373
N           -0.21785981429408       -1.07454270584125       -0.62852350540273
C           -1.12283917341434       -0.17664212766193       -0.41339435781113
H            1.38581683553976       -2.16298048455319       -1.04095042933778
H            5.27302197881519        0.09911819257656        0.72031935738889
H            3.92481307079810        2.34345097732574        0.33368609513846
H            1.75857879664178        3.00704225506628       -0.65566662787074
H           -2.57095969628321        2.83743939169858        0.10336073847358
