30
 energy: -54.896716270109 gnorm: 0.000530110137 xtb: 6.6.1 (8d0f1dd)
N           -3.90099949719235       -2.63884045626787        0.45475804112377
C           -3.23800585387489       -1.70495732929540        0.34032803778630
C           -2.48801006501730       -0.53895071975967        0.21782590546021
C           -3.00105351513656        0.77401303562372        0.38528254327454
C           -1.96689711668530        1.70330446537292        0.14029642004521
C           -0.78758982963775        1.02747400895160       -0.11813008865239
C           -1.13691800682098       -0.43600384249291       -0.16191916133585
N           -0.48275824064459       -1.43119417074524       -0.66722945687906
C            0.75334634036605       -1.80805939547239       -0.83405871967585
N            0.97161868987279       -2.76229713208668       -1.75847674625819
H            0.18309847694078       -3.18229042649384       -2.22250805529956
H            1.86580106662714       -3.22032708793382       -1.78991245666877
C            1.84226534494103       -1.40232415632155       -0.01083927290953
C            2.82147956055836       -2.24378844811579        0.51608345134877
N            3.74517367844076       -1.56604124067172        1.20704385870630
C            3.44442458201270       -0.27968693613596        1.08140258708981
C            2.24743326220146       -0.06849970664672        0.36264780155918
C            1.79018302838801        1.21411278288088       -0.03176957796574
N            2.75542778643428        2.15771432222241       -0.12501727202790
H            3.70369594104350        1.90770713205620        0.09411323578483
H            2.51724211318679        3.12943802004230       -0.23974324343399
C            0.46083147658767        1.66403331665349       -0.25144458290358
C            0.34157075324898        3.05737497253678       -0.46015536504060
N            0.26065385489690        4.18725118868858       -0.66110740201678
H            4.04536284733216        0.45853355831161        1.58400190541690
H            2.84775791282992       -3.31802642407778        0.47358311168645
H           -2.07720939593036        2.76881522190734        0.21768749537749
N           -4.25830324043559        1.06716772167364        0.72806441747083
H           -4.91540375377568        0.32687807134272        0.90921855246010
H           -4.56297408865989        2.02287163475722        0.78992841957794
