36
 energy: -61.208143237219 gnorm: 0.000607685115 xtb: 6.6.1 (8d0f1dd)
N           -3.49089668708095       -3.52820582566003        0.02355672485672
C           -3.08749338103791       -2.44771052567496        0.01507600722230
C           -2.62318630343399       -1.13939949604282       -0.00338664454373
C           -3.43735252069186        0.00185471586040        0.16724165141771
C           -2.61596627467642        1.14366473502123        0.05196351515487
C           -3.07006581872871        2.45323222759525        0.13146689378993
N           -3.46536733207571        3.53491599292422        0.19403428351692
C           -1.26722063723196        0.73812377753483       -0.15528560056699
C           -1.27117971682230       -0.73479339416674       -0.18335251518977
C           -0.29900012312896       -1.65995434255209       -0.46907424118700
C            1.11158384893237       -1.67743052615926       -0.49359187737651
N            1.62082575275593       -2.88224418486174       -0.88361658035563
H            2.60372390207892       -2.95812151278382       -1.08138948303466
H            0.99950736258169       -3.58028920402248       -1.25281146293487
C            2.05047757814371       -0.73868076533578       -0.02728663383330
C            2.05706787636654        0.73424656906819       -0.04844213654648
C            1.11437183382651        1.67139283008046       -0.50507768946719
N            1.61966957173600        2.87243309319910       -0.91808643199228
H            2.59073516487448        2.92811006114078       -1.17268378437128
H            0.98904517820176        3.55896744561986       -1.29391073383110
C           -0.29568376442988        1.66477208795070       -0.43407675751866
H           -0.70973487362625        2.66256791199221       -0.56927324997255
C            3.35098022884443        1.12966144105978        0.37727809483607
C            4.09701258543203       -0.00036529385600        0.69314762872745
C            3.33757458611240       -1.13228005923164        0.41556876030551
N            3.80795242738018       -2.43346949855871        0.60727162907297
H            3.11410158405338       -3.06992136716297        0.97799508199698
H            4.65063384322663       -2.44500306296085        1.16704632881887
H            5.09579514935277        0.00082819680433        1.09229597550733
N            3.83453054354169        2.43014913017979        0.52737654255761
H            3.14499293230688        3.08923764663701        0.86444739696668
H            4.67290580425101        2.45319396235373        1.09286464094601
H           -0.71758326792416       -2.65031145878700       -0.63992375478453
N           -4.76114360638743        0.00002407320960        0.39571839494908
H           -5.25762270040338        0.86853296714975        0.48801279085136
H           -5.26361079731035       -0.86883740867905        0.44034266211614
