29
 energy: -51.959344660781 gnorm: 0.000704239804 xtb: 6.6.1 (8d0f1dd)
N           -6.05281692076630       -1.11738871565834        0.51909369671442
C           -4.93909777036684       -0.95383418632810        0.29416090918294
C           -3.58309196973364       -0.73946983182698        0.01441523023223
C           -2.63857945905767       -1.70544635415162       -0.30141410978988
C           -1.37530181488574       -1.09081256118590       -0.42960091514671
C           -0.27279742263631       -1.86568334422511       -0.75784033194493
C            1.09923404016361       -1.68234936746264       -0.67295784055543
C            1.89745006909434       -0.68434847665376       -0.14396108239224
C            1.66827373439889        0.73370942245797        0.24838005906872
C            2.87608830751462        1.19090359939345        0.80589651538028
C            3.82322943998674        0.18512167928040        0.76234185918768
C            3.25678375788676       -0.94573170515487        0.14777581401316
C            3.91070125613584       -2.15893054590135       -0.07966260152120
N            4.45219835132151       -3.15350383625733       -0.27709838608076
H            4.83035107163409        0.24532951214268        1.13294211564123
H            3.03608623629391        2.17482670139429        1.20459900564624
C            0.62704469085587        1.61889638302438       -0.04260852291727
C            1.01443349974662        2.97923793820678        0.09998297789116
N            1.29740746836683        4.08888557461240        0.18796845400705
C           -0.73921129288254        1.47726528587829       -0.41624909378457
N           -1.35061435297426        2.60163061627695       -0.84618701863950
H           -2.32678506726375        2.58060499296841       -1.08268701008490
H           -0.86418152719467        3.48337556515302       -0.86576153527164
C           -1.59210893145986        0.35372470114919       -0.24948264434818
C           -2.94929351087152        0.52461649184400       -0.00178962157627
H           -3.45491275835366        1.44444874578492        0.23165281529546
H            1.67302118422950       -2.55942234450618       -0.95921395864132
H           -0.55007095335161       -2.87199750901472       -1.05560027742569
H           -2.82158060562914       -2.76032878193967       -0.38104279744074
