33
 energy: -53.241473263709 gnorm: 0.000768363504 xtb: 6.6.1 (8d0f1dd)
N           -4.42298161376962       -2.02329389254332        0.45838276728325
C           -3.69766126673973       -1.14049105680232        0.29548877746436
C           -2.84923134662019       -0.06077675804689        0.10347209681918
C           -3.25002492399069        1.29455350338695        0.11797392447047
C           -2.12360335379558        2.08561065625355       -0.14260566547439
C           -0.99199058202060        1.28028623880449       -0.26830830678682
C           -1.44781661911421       -0.12185407264701       -0.13301113212131
C           -0.83336641790055       -1.32583996414160       -0.35803889906709
C            0.49949640492255       -1.77867406337530       -0.45234416794528
N            0.60583759924646       -3.06636388832251       -0.88867120286390
H           -0.21475083949331       -3.64477280396707       -0.94045629942706
H            1.50352918969268       -3.51582046086800       -0.88017465464081
C            1.69139315302934       -1.16833696675979       -0.02593693192286
C            2.77025974228038       -1.95242978492951        0.43929457900364
C            3.80076675997148       -1.12884171013364        0.83874042800383
C            3.44453452966882        0.19567657572928        0.55631303258902
N            4.29075037731773        1.28732330895905        0.79930969465753
H            5.04697921842830        1.03399306633475        1.42191869315404
H            3.80358817268777        2.10770328470021        1.13653611394736
C            2.13903729134500        0.22252911799093        0.03045786313263
C            1.56965895193057        1.40421723117690       -0.51742913034976
N            2.48000646830632        2.35207244198604       -0.90192154547717
H            3.43972604161346        2.07827173176020       -1.02163323692486
H            2.15463201106383        3.17293820223746       -1.38137297718601
C            0.24340283226101        1.82297301633196       -0.59735293563266
H            0.15729815131804        2.86583370469473       -0.89712435942054
H            4.72459541448901       -1.43829432751722        1.29434921019470
H            2.75969052142475       -3.01775589822178        0.58776685062637
H           -1.54688924062209       -2.14566238721599       -0.42393268223676
H           -2.13050928216802        3.15853832027122       -0.20894056413827
N           -4.51509386358561        1.72753499815047        0.30490745209728
H           -5.21999994033148        1.06920730853180        0.58786256336166
H           -4.69779996574523        2.70805545579219        0.41922695111053
