26
 energy: -46.410200523450 gnorm: 0.000562128428 xtb: 6.6.1 (8d0f1dd)
N           -4.77155674419361       -0.56042925672936        0.76679582324326
C           -3.51871668250240       -0.29144951329265        0.38237353074587
N           -2.74831268327339       -1.25909473020940       -0.14090467467641
C           -1.57051170184527       -0.70451394570665       -0.43999791576028
N           -0.60333039768058       -1.42726355641452       -0.88362294040388
C            0.70058270265040       -1.41825677971849       -0.91917453264363
C            1.59576942274137       -0.66515697513689       -0.17371804833108
C            2.91473254103562       -1.09223907848093        0.21366071253910
N            3.58756709780341       -0.13532052965023        0.83829857773767
C            2.79225987309308        0.95731911356869        0.82130971358358
C            1.54661940863649        0.71797235846751        0.26416071597589
C            0.61802396607015        1.73697919202930       -0.15545250312828
N           -0.67602962621229        1.69524098756589       -0.15733634888024
C           -1.60814269864144        0.78319885157576       -0.06663685593239
C           -2.85723346826956        0.95660043152774        0.48636889574956
H           -3.26936540477561        1.86136149111427        0.88619858979157
N            1.16797854925301        2.91897639110939       -0.52959917106060
H            2.15280274115224        3.06827747317665       -0.40853501069160
H            0.56211411218778        3.70078503264602       -0.70846167366729
H            3.14884875378265        1.87063374608266        1.26596744027965
N            3.45313355231064       -2.32523959940090        0.00851087374370
H            4.27463877379016       -2.52941599689866        0.55353758535184
H            2.82897339291941       -3.09333136781446       -0.16711319717093
H            1.11100394694270       -2.22694796874182       -1.52265982253320
H           -5.35741119713504        0.15397304742677        1.15828459919756
H           -5.13152207354011       -1.48666228309669        0.61903201024101
