29
 energy: -49.581654664676 gnorm: 0.000601117012 xtb: 6.6.1 (8d0f1dd)
N            4.83440339684249        0.50324106073900        0.62072461716410
C            3.55709575077137        0.32309580512977        0.26742651805427
N            2.66957242660946        1.34805718870741        0.32325160929839
C            1.52703394231480        0.81103276197937       -0.08244004829399
N            0.50679302072994        1.53367910125743       -0.43530118678218
C           -0.76945296070239        1.35655685968378       -0.59940392201769
N           -1.38407088475268        2.30524704073101       -1.34604538011531
H           -2.36906779289234        2.24064065939748       -1.52959549871106
H           -0.82220403640691        3.00558710026078       -1.79761310039369
C           -1.61671646154717        0.40623241626956        0.05409975471857
C           -2.87506182493108        0.72549602829783        0.56770543565532
C           -3.49541756117599       -0.45974709877990        1.01094920449100
C           -2.67483086813845       -1.51791813170837        0.70503579923212
C           -1.46740008085683       -1.03781843706554        0.12971327000889
C           -0.47468852723287       -1.90313611408451       -0.36350533032476
N           -0.87943085147417       -3.17518839669720       -0.65111726438336
H           -1.82350518657170       -3.44543576981438       -0.44179106567247
H           -0.19222432433010       -3.90328769470477       -0.74359044969369
C            0.91747815260113       -1.71271776105016       -0.52439438759049
C            1.76318780047610       -0.66092472122166       -0.30187241137849
N            3.08905361902221       -0.85974447896620       -0.13675938631128
H            1.46121234495367       -2.63425224910810       -0.71298258464877
H           -2.88723336413497       -2.54014911433993        0.96551227518854
H           -4.45592393218883       -0.51323121377666        1.49108921545199
N           -3.45314508832052        1.99217003893538        0.63630437312821
H           -4.17609757451862        2.05237805194897        1.34032768889430
H           -2.78321780468452        2.74452523997957        0.72386159875918
H            5.13934978388931        1.42488595471101        0.87296773535920
H            5.49145631084903       -0.24076417541149        0.47544841191221
