30
 energy: -54.893756911169 gnorm: 0.000645403919 xtb: 6.6.1 (8d0f1dd)
N           -2.75194014316091       -3.67931615143168       -0.78519683746924
C           -2.49825039998976       -2.57379573863444       -0.58357440572188
C           -2.19880679039557       -1.23829100027424       -0.33909909248631
C           -3.10361269100008       -0.28173816141143        0.14874163760073
C           -2.41823385643601        0.96569247148395        0.28748084635426
C           -3.03253135168919        2.13357005145611        0.73407210172636
N           -3.59459659707741        3.05965395366311        1.12201065452504
C           -1.09932385287057        0.81420342364196       -0.16560191716473
N           -0.33708478334122        1.82273604557888       -0.47137605079982
C            0.91037994989106        2.05290865984193       -0.70733313538053
C            2.05878328147423        1.37438936400105       -0.29110847103272
C            3.29145782385840        2.01995689552466       -0.13979027211691
N            4.25142267092723        1.20518107761850        0.29998694912865
C            3.70871214499291       -0.01057363167258        0.39203826147581
N            4.49199555465360       -1.07837788892106        0.79275357959734
H            4.07671371420711       -1.66683136615362        1.50395837739666
H            5.41397813847902       -0.75429806496932        1.05889319486939
C            2.32760572256059       -0.02914425751523        0.02375442822757
C            1.61937179605426       -1.19864887478963       -0.28272812494590
N            2.33092915456262       -2.35476101040718       -0.29620525925249
H            3.33852761866334       -2.30185078576075       -0.32841622414851
H            1.88686122112469       -3.19862851291766       -0.61708181426529
C            0.22600802536382       -1.40507235934077       -0.51164297517305
C           -0.90336095125834       -0.64265489859587       -0.43201916275509
H           -0.00418561620862       -2.46056686065265       -0.64921211341312
H            3.48947582454757        3.06559493217890       -0.28602494914224
H            1.08259512092653        3.01132581902072       -1.19371667472255
N           -4.39322914405342       -0.47987448280969        0.44316408842816
H           -4.82154067031071       -1.37347515884675        0.27199797218458
H           -4.94907954849502        0.27722050949436        0.80316372587746
