32
 energy: -57.547941929758 gnorm: 0.000837821648 xtb: 6.6.1 (8d0f1dd)
N           -5.41391765769026       -0.04835137004798        1.10736101064337
C           -4.32512306257433       -0.03547900327996        0.73019381572391
C           -3.00201748632225       -0.01337311796678        0.30438942730093
C           -2.19008896581656       -1.15261873867861        0.05377479879277
N           -2.65788601062736       -2.45283459624879        0.11027744627977
H           -1.96338376671310       -3.14727158942427        0.34576556272951
H           -3.51363857525594       -2.55171647888164        0.63843345204379
C           -0.90214313764003       -0.72012042638919       -0.25120120292234
C            0.13840403321031       -1.61466529252662       -0.65233319328857
N            1.37754879159947       -1.62780312043835       -0.26114601503455
C            2.26285490728098       -0.76917118793748        0.13727623597811
N            3.37859555081737       -1.12347526516492        0.75840276799979
C            4.16302149184846       -0.01817823176425        0.68859711357228
N            3.64442139646366        1.05442846711458        0.08221662646603
C            2.38408416795122        0.69038270856736       -0.22916005940104
C            1.47468418895866        1.60583840563710       -0.68228706817527
C            0.06100172303927        1.66079451915163       -0.71944406037202
N           -0.41413518880422        2.87685697147437       -1.12565689074808
H           -1.38569895040162        2.95818648192565       -1.37560179787680
H            0.23256486450271        3.53246860940710       -1.52870046778024
C           -0.90663457345230        0.74308054613026       -0.26816036878436
C           -2.23231671523518        1.13267798011504        0.07440727943204
N           -2.73083748012145        2.42399768116988        0.19759136198462
H           -2.08640837120871        3.08557363353157        0.61005246879393
H           -3.63517740786006        2.44019116880342        0.65250667589301
H            1.94506718483160        2.55854394630095       -0.90970304930524
N            5.39129987901356       -0.01772022076412        1.21033274187551
H            5.72727016297850       -0.84767637889661        1.66263003117899
H            5.97270925360356        0.79286504148657        1.10474907750190
N           -0.23473610160529       -2.70227492376066       -1.37292342733706
H            0.48147947707227       -3.34430058864479       -1.66600823987964
H           -1.14904084124494       -2.74289079859614       -1.78562804058308
