30
 energy: -55.683184979922 gnorm: 0.000518699163 xtb: 6.6.1 (8d0f1dd)
N           -3.89731846506865       -3.44481307771226        0.55832398289739
C           -3.58050824499296       -2.35501710382923        0.37129759935226
C           -3.13684249628669       -1.05033940877694        0.15671835854251
C           -3.84835993120757        0.00060759213190       -0.39238190817136
C           -3.03681885458865        1.15698439408193       -0.43342518536769
C           -3.43454493666044        2.40891978571973       -0.91028748742989
N           -3.77044918039426        3.42980025525608       -1.31577726118606
C           -1.78566940325794        0.85700508264295        0.13840824881100
N           -0.93324022466706        1.75301427635628        0.53209223076448
C            0.29572438174734        1.82364908132050        0.90767926929757
C            1.40600782057640        1.03872721878903        0.55806020177202
C            2.67861265373334        1.59810482528534        0.53450952813515
C            3.59556258753823        0.64464172926621        0.06538724126348
C            4.96169760692482        0.82421533152692       -0.16869515806574
N            6.08541777358708        0.92309698567257       -0.38801626367300
C            2.91072659312483       -0.56458344149660       -0.14495794891144
N            3.52177358449374       -1.72478556414392       -0.58480140449428
H            2.99908688175289       -2.26342994821748       -1.26267863768012
H            4.48172881411574       -1.57629037881831       -0.87107382548210
C            1.53422826186148       -0.38079162694597        0.18546565266931
C            0.66566709537423       -1.45548065152730        0.42240777687206
N            1.21784695311836       -2.69183207635626        0.48202460249116
H            0.64255437345977       -3.48006979287433        0.72683883535989
H            2.21777113408368       -2.78178641657893        0.58151853352265
C           -0.76500606758556       -1.49912290430062        0.53177646071565
C           -1.78306860796115       -0.61201530630006        0.39535159752589
H           -1.12231766674450       -2.52481248560711        0.61512186841958
H            2.91652617657458        2.61615130419204        0.77835542540282
H            0.52758812187297        2.74294882167027        1.44210558173314
H           -4.86872512212253       -0.04184782552833       -0.72979570908584
