25
 energy: -43.477585954647 gnorm: 0.000986803914 xtb: 6.6.1 (8d0f1dd)
N           -2.94736664126245       -3.05494072844038       -0.17099036610841
C           -2.18441771530639       -2.20007684479273       -0.14467917772303
C           -1.18682635003813       -1.18719520420655       -0.10014601038895
C           -1.71122419649381        0.10967826117035       -0.09554784822719
N           -3.02526866465440        0.29110543973556       -0.20374935360447
C           -3.20088540013138        1.62220748144372       -0.16202472387116
N           -2.11551896511591        2.34817789664611       -0.00695246039790
C           -1.08892249861007        1.45336024340291        0.04359194088513
C            0.15970605801346        1.95040349407667        0.29179570980897
C            1.47784622367182        1.44585517388475        0.38378887453257
N            2.36271965801619        2.38475538949758        0.79634536447084
H            2.05143200791423        3.31925764394692        0.99391081542983
H            3.32889645626393        2.15838038815776        0.94381942363131
C            2.01003420802369        0.18298760798158        0.04942656173767
C            3.39079145849553       -0.01328287328512       -0.09754659872961
C            3.65873809917860       -1.35482926581969       -0.36510963485455
C            2.46426064742142       -2.04523117422199       -0.35991000861444
C            1.39443993907375       -1.14940947588266       -0.14224685567826
C            0.11362907708660       -1.67954792622347       -0.12877527393806
H            0.12932222828518       -2.76481576301172       -0.20793047929217
H            2.34438294680823       -3.09955330992584       -0.52624393576037
H            4.63333383266440       -1.77138555249284       -0.54118607395979
H            4.15401414836957        0.74353944658081       -0.07315409203774
H            0.10733841406509        3.02516452373530        0.44925940966422
H           -4.17896768673983        2.05958011224349       -0.24503754598122
