33
 energy: -58.046830479487 gnorm: 0.000816788809 xtb: 6.6.1 (8d0f1dd)
N           -0.21814069782313       -3.98045062157394        1.48867138780360
C           -0.08430146509429       -2.93612872271978        1.02166613042054
C            0.09661120761622       -1.65030043491045        0.47360217108488
C           -1.09698896523871       -1.12100037266557       -0.07988582520584
C           -2.18604303625574       -1.89324955863726       -0.41374129988832
C           -3.22262661292602       -0.99610681094465       -0.79806317855013
N           -2.85612625492088        0.27901175619595       -0.65479515305989
C           -1.58043237186733        0.27999664679485       -0.22262638569413
C           -1.05009263116014        1.49376187913885        0.18266153611894
C           -2.04271594710103        2.50180397882437        0.27991087348385
N           -2.80353084684452        3.35434206656797        0.40206365698997
C            0.28702286518430        1.95749099993712        0.38704601425710
N            0.39443092481087        3.19395522383160        0.93266398604123
H            1.30002223425501        3.62712755555978        0.97702478693604
H           -0.42473369505662        3.77053774374657        1.03873201804860
C            1.47252254148687        1.36947991397876       -0.07542912851426
C            2.53775846791158        2.18466586745650       -0.53857913110840
C            3.56393061400700        1.38631720059482       -0.98303798891619
C            3.22962766460434        0.04620456106428       -0.71748235345808
N            4.08188445586292       -1.02614114430734       -0.97790132065695
H            4.81300191723513       -0.78717851123751       -1.63338292685614
H            3.61158164481476       -1.88176038097775       -1.23987290105620
C            1.93484187351920       -0.00654420801748       -0.17383804512625
C            1.42169166018165       -1.19076897184235        0.43418556553641
N            2.36236358834428       -2.02282116063962        0.94638600593174
H            3.32085149222449       -1.72494748757947        0.98153833956187
H            2.09399133532731       -2.89975582288848        1.36004979889423
H            4.47243123273647        1.71510841780407       -1.45379199849697
H            2.49892737458341        3.25264949736990       -0.65836450844211
N           -4.42984670761937       -1.32696772599364       -1.27054172337272
H           -5.08328965939225       -0.59000996021030       -1.47005172807488
H           -4.72666655560047       -2.28534478808146       -1.29500427710811
H           -2.24748698750464       -2.96392501903797       -0.42177090562251
