34
 energy: -62.579408801705 gnorm: 0.000848014435 xtb: 6.6.1 (8d0f1dd)
N            5.95811400536818        0.33742825148234       -1.38671157700156
C            4.92145023801456        0.15987490172602       -0.92066431244551
C            3.65165437506211       -0.01480959657762       -0.37078101432931
C            3.10805225584484       -1.18996815945388        0.13527376028168
C            1.76349140912449       -0.96226260455037        0.48461833886404
C            1.49462994885626        0.44852743016475        0.24900550689530
C            0.40281552341358        1.26378837614860        0.68441713531678
N            0.75489928664500        2.48100827413478        1.15672050947714
H            1.72645302353231        2.71054819770771        1.27090974453909
H            0.04884702984869        3.14407753483953        1.43152120521716
C           -0.97226413967577        1.00534511680348        0.57012512121560
C           -1.81479332921844        2.07061437117167        0.95862701638072
N           -2.46169463712455        2.93752987207489        1.35000322242515
C           -1.67338287112094       -0.10562076072013        0.04534445831242
C           -1.41206369736365       -1.55970425856417        0.15661704847853
N           -2.49734140457310       -2.25962206348247       -0.26994227152918
C           -3.39886177793517       -1.38711607831118       -0.68130535121992
N           -4.57034051259499       -1.73304065384309       -1.21947781264122
H           -4.78909997103652       -2.70619679342124       -1.33832350216508
H           -5.21890060291473       -1.02432744098881       -1.51533579586574
C           -2.95983630505168       -0.02370157558222       -0.47287198440709
C           -3.72470989438312        1.07602622888889       -0.85002234326103
N           -4.41992429802293        1.90750070428664       -1.23714335109440
C           -0.39244343337119       -2.27639271611318        0.72314250836764
C            0.96807728674671       -2.01379270383008        0.98453583312198
N            1.61922172463847       -2.99993553060456        1.64518989950667
H            2.61221533596155       -2.93886596753408        1.78556995500402
H            1.15761792129336       -3.87275372600830        1.83518467195836
H           -0.67619731057570       -3.31119665693290        0.88887911849342
C            2.67443864547631        1.01094280352008       -0.25488062111948
N            2.91599820923213        2.33092831071801       -0.59848783774969
H            3.74056003772388        2.45004460766312       -1.17120136022784
H            2.11989035029604        2.84343238784149       -0.95104376453229
H            3.61450391058369       -2.13790941095581        0.12957228153387
