29
 energy: -55.948750147619 gnorm: 0.000847651850 xtb: 6.6.1 (8d0f1dd)
N            0.99088018245039        4.25583645761031        1.24410607604389
C            0.77017890499861        3.18872840786237        0.88986924227576
C            0.60221378871824        1.83126115013598        0.49553557086739
C            1.83254634420109        1.12356471925157        0.45248754374833
C            2.16709957563037       -0.12095714244141        0.02720390971709
C            1.45758193379182       -1.36503636826899       -0.26423984753202
C            2.43759571397894       -2.21916311785954       -0.74578379972691
N            3.66879384420029       -1.66181680889366       -0.81591529636162
C            3.56357913777547       -0.45110507785565       -0.31427824176586
N            4.61318904327552        0.37967150045154       -0.25340086946645
H            5.50133561161932        0.02741088202098       -0.56437353661908
H            4.57160222518244        1.26475017526656        0.21773944858361
H            2.31686004423000       -3.22324114515032       -1.11199712640426
C            0.14487147216194       -1.82045330996720        0.06643920888615
N            0.05555827629315       -3.14265782127933        0.31320531320884
H           -0.84034274456793       -3.57168720461499        0.48561918478231
H            0.88224645040977       -3.71303310047691        0.32362137258079
C           -1.07003241872921       -1.10126445331170        0.09815704006016
C           -2.19908508143517       -1.88938788383029        0.42881037229068
N           -3.06236732969686       -2.56127730949569        0.78267419955859
C           -1.39551003837427        0.24603336982927       -0.17268439860764
C           -0.67533339682118        1.51863611893234        0.08506446363740
N           -1.53040362896501        2.56753219385298       -0.08201946490676
C           -2.68355149342237        2.08578490966516       -0.46540289972407
C           -2.68959530383108        0.66126336009130       -0.50467429237054
C           -3.77701541656338       -0.10245048255520       -0.93818962815125
N           -4.68551284267385       -0.67262793294743       -1.34865181127309
H           -3.50277367605715        2.73186260807905       -0.72421245182604
H            2.67086522762078        1.76652168969810        0.70727219439442
