26
 energy: -47.201038537696 gnorm: 0.000991302692 xtb: 6.6.1 (8d0f1dd)
N           -2.23920855601090       -3.43561264797914       -0.45971541593642
C           -1.63293241498043       -2.46491740010528       -0.38267392410760
C           -0.81511502283672       -1.30474525746868       -0.30663213443713
C           -1.53640098843736       -0.11587268255999       -0.33908213687977
N           -2.86879169783355       -0.17260338275081       -0.26813548562676
C           -3.29947307285189        1.04714743518661        0.09617459531494
C           -2.23853554084794        1.97355467732010        0.24835604973490
C           -1.08508549728947        1.31614386612802       -0.13750704992734
N            0.04999583925215        1.91461070276543       -0.38873096920901
C            1.30002118999620        1.63681202276529       -0.51266115361183
C            2.05190235319383        0.54279222290678       -0.06869300472395
C            1.67772752914912       -0.85849474518066        0.12366402170958
C            2.93046004369632       -1.50104742169578        0.39097941780088
N            3.94702331432631       -0.67664005936300        0.39449756869974
C            3.44738024974629        0.55948726281276        0.10001781392980
N            4.29782546638873        1.60548527447019       -0.00222963468457
H            5.23584650092638        1.45131661295582        0.32522897839796
H            3.94086320390507        2.54371450859455        0.00858588418585
H            3.06929560906822       -2.54898887847375        0.58651759267410
C            0.54212738439607       -1.60413631815362       -0.06478257562554
H            0.71437281355815       -2.67369807592145        0.02974602560121
H            1.86811041410619        2.44506565667872       -0.97483882134188
H           -2.33077520115679        3.00924793347364        0.50502685975483
N           -4.60254103873894        1.28073708941196        0.27143002965725
H           -5.25259335009454        0.53900739570872        0.07707085703946
H           -4.93083443523113        2.16821856127434        0.60543781941119
