32
 energy: -59.129143866860 gnorm: 0.000832345193 xtb: 6.6.1 (8d0f1dd)
N            2.45560289737852        3.97229520995894        0.64024774112905
C            1.91349763665095        2.97724089442527        0.46676143082405
C            1.18430440042183        1.76598313822229        0.31014702227884
C           -0.18722652902807        1.90930341100123        0.56287189722363
C           -1.28513223196467        1.10076935130395        0.37772751558547
C           -2.56389256001105        1.72279790189944        0.29256964010438
C           -3.50195030111479        0.77674235192494       -0.05006524808646
C           -4.85698414492249        0.96869204667230       -0.33330951705387
N           -5.97296050123399        1.07636468268902       -0.58639744895263
C           -2.85514393645814       -0.50575521199116       -0.09013592454843
N           -3.54851590038112       -1.66596589589886       -0.35247472807585
H           -4.46368641948934       -1.52031211851489       -0.75453558352499
H           -3.02896813759849       -2.41735071353717       -0.78099905184372
C           -1.49758166685129       -0.33557199200045        0.18472903149475
C           -0.64292238195317       -1.44177054279456        0.49254589860686
N           -1.29113408087453       -2.52933102257729        0.98356175697259
H           -0.76588801616561       -3.34487948319825        1.25309263098759
H           -2.24538241741770       -2.44491791029542        1.28605102416912
C            0.73400519528127       -1.59571158136978        0.27294748440522
C            1.23509130202566       -2.88661069320341        0.55682681085000
N            1.63150713761153       -3.93707548578301        0.80974659286536
C            1.74459559945783       -0.75262785953131       -0.25980464849202
C            2.92650691069699       -1.24064245500192       -0.77169716774146
C            3.75732138418993       -0.11579995953037       -1.03470556313957
N            3.17276734223686        1.02997481023507       -0.65983686110871
C            1.95289385264640        0.72381934866922       -0.20029271323168
N            4.97042336795189       -0.12318937919308       -1.58774136764609
H            5.42470425878576       -0.98412695088279       -1.83417254204301
H            5.44960509405743        0.75358927444607       -1.70229442894768
H            3.18195960748319       -2.26430742459206       -0.96240440235938
H           -2.73963858502340        2.77694678417643        0.39627225175330
H           -0.45067773568751        2.92882539227121        0.83288368944436
