27
 energy: -51.707920739705 gnorm: 0.000894156476 xtb: 6.6.1 (8d0f1dd)
N           -4.67770884989031       -1.10541941931385        0.04169895431178
C           -3.78758901988106       -0.38191337010407       -0.02079405220039
C           -2.76482896700713        0.56182410613062       -0.13920178494772
C           -2.93223369775645        1.82029640483744       -0.76313232688742
N           -1.83250289711421        2.55188635867043       -0.80563704621237
C           -0.87760603765309        1.84631742169373       -0.17125062431017
N            0.17900516914075        2.41193772879359        0.27762576974149
C            1.35826797072719        2.13359140094094        0.72808757351171
C            2.16164133217611        1.07660530072698        0.32183730319833
C            3.56139732295907        1.14627037157525        0.21183142770375
N            4.08369756482765        0.04460614768387       -0.30698387654999
C            3.07381945865869       -0.82245833364000       -0.48830747939836
N            3.35350435701577       -2.07779863150233       -0.97575773934255
H            2.70616126377225       -2.44482327612044       -1.65997145173405
H            4.32054710711172       -2.15092776565120       -1.26423397123909
C            1.81116967256328       -0.28216384838744       -0.10836384173841
C            0.69053142843524       -1.07726269106711        0.19676319006494
N            0.89941299660030       -2.41272787465167        0.21145546924352
H            0.15372529853635       -3.03562094378775        0.47902477950127
H            1.84702486687848       -2.75881769171280        0.22083556143905
C           -0.68434706484912       -0.70014497651265        0.44028823235150
C           -1.50049315428634       -1.77475366381969        0.87388589737544
N           -2.09986223177072       -2.65481279121517        1.30676351841181
C           -1.39141253943186        0.46187891546651        0.15775511865749
H            4.17794150330342        1.99800875980253        0.42945364272204
H            1.80176524216342        2.91137465379525        1.34326410892058
H           -3.84906985483046        2.18800696456899       -1.18969008719547
