28
 energy: -45.839863007425 gnorm: 0.000904546893 xtb: 6.6.1 (8d0f1dd)
N           -2.88101905958060       -2.62027743732802        0.02822490563780
C           -2.42638784766352       -1.35352829206920       -0.04490685757919
N           -3.20267425983572       -0.36372618881313       -0.39671739382992
C           -2.42550786720534        0.77223693394888       -0.33037346366398
N           -3.01480151569206        1.96985971306993       -0.59264702270106
H           -2.40500564976767        2.73070219756311       -0.84716171388378
H           -3.89767943840131        1.90791580443701       -1.07418581835975
C           -1.10278580714697        0.50649947129846        0.01190911602323
C           -1.03535611367341       -0.91558685848563        0.21563360788244
C           -0.06322666658534       -1.81222507304350        0.55620222746152
C            1.35095380985643       -1.74813498387074        0.58412586601194
C            2.25785731507368       -0.78200605688979        0.27186849794938
C            2.11008547245806        0.64954519715339       -0.12956742206331
N            1.14832732069758        1.52765888377963        0.16976846818277
C           -0.12027135424160        1.52155230908790        0.32318940761164
N           -0.65247126967630        2.72699657214734        0.75095830822234
H            0.04123612675112        3.36846194532405        1.10593539749399
H           -1.50873444821172        2.68068026179491        1.28034109241411
C            3.29284589653818        1.01579889807427       -0.71251137031380
C            4.21638584399287       -0.07384462624940       -0.63751816122306
C            3.63100525698249       -1.12076970668635       -0.00054198016776
H            4.06969085155332       -2.07687016953386        0.21908533311971
H            5.22306983402594       -0.04103858268741       -1.01700135880211
H            3.50424329905150        1.97792332801963       -1.13886769613489
H            1.80409273826917       -2.71759778240867        0.77807420006866
H           -0.43089266464381       -2.81427182925833        0.75900369703406
H           -2.23354806363767       -3.38673253376934        0.07321950518376
H           -3.79374529968921       -2.79463480720506       -0.35596723067358
