26
 energy: -42.385978998465 gnorm: 0.000639302090 xtb: 6.6.1 (8d0f1dd)
N           -0.56714584284367       -3.04686621109575        0.24354124030370
C           -0.20903673307355       -1.73533595597362        0.12235894302811
C            1.20452686109604       -1.55882420492301        0.20354710806397
C            2.06996927329016       -0.50946570015461        0.13038068155084
C            1.84236306534422        0.97251788767885       -0.04973214664671
N            0.82969439883942        1.69105326154356        0.33706812360626
C           -0.42487763724617        1.55145348669962        0.58542544164228
C           -1.36241205778352        0.61498998301083        0.12742645626962
C           -2.71472962867415        0.95797447282384       -0.05789966673867
C           -3.41792258888106       -0.18665032844393       -0.47763473251501
C           -2.55128752989664       -1.25450669618537       -0.48355978469549
C           -1.24460887161434       -0.82693352583182       -0.13024162240288
H           -2.83470749344603       -2.24582006113620       -0.79080675474683
H           -4.46325456702295       -0.21502764363626       -0.72668920768135
N           -3.28624188893835        2.19209637671105        0.13207288135033
H           -2.66922091347907        2.98735405535062        0.12745334093542
H           -4.16259757666056        2.34366519760850       -0.34097554384750
H           -0.83798016572146        2.39678113587765        1.13736862332970
N            2.93996428175857        1.53958924607001       -0.52451844877131
C            3.89679865776378        0.57710982392582       -0.55913813182358
C            3.45848943831562       -0.65135450798815       -0.13773567301722
H            4.02794249062607       -1.55793959772519       -0.06830647976631
H            4.88506033267163        0.83949434035862       -0.89561915740849
H            1.72304582580468       -2.51714260036535        0.21897281979140
H           -1.52836489029836       -3.31787912811965        0.15684976092441
H            0.13285222977009       -3.76676760177997        0.24749490896560
