33
 energy: -64.446658423727 gnorm: 0.000617686006 xtb: 6.6.1 (8d0f1dd)
N           -6.63541116007969       -0.49966329307482       -1.07882685741243
C           -5.54326051182185       -0.44844444423429       -0.72964132130423
C           -4.21255553207175       -0.37112417481128       -0.29791780531213
C           -3.47551971101358        0.82809784491346       -0.14844428663856
C           -2.17797784392932        0.51928702232897        0.23639242390551
C           -1.26386943720591        1.53024595108364        0.65445693219204
N           -1.83460358118321        2.64120183679613        1.15736426815577
H           -2.83227244999149        2.68350209316884        1.27106062392575
H           -1.28165130789949        3.45403143473495        1.37954703729833
C            0.14137626864977        1.56141160266229        0.48920558254045
C            0.72880331596110        2.80541130371965        0.83656269326462
N            1.16440735364658        3.79435829989605        1.22603757516139
C            1.06826080228210        0.64137794815844       -0.03299207249594
C            2.27736849547691        1.07620580678366       -0.60469789570027
C            2.63664239116175        2.36280913099776       -1.01924949454622
N            3.00647866738717        3.36305395363774       -1.44692404634960
C            3.10850379199084       -0.04579676649097       -0.85602519464299
N            4.30149683773028       -0.02934872591248       -1.44420009521513
H            4.69729248864482        0.84057257205612       -1.76250960062102
H            4.80744327974616       -0.88917592389083       -1.58497451907317
C            2.42749247778903       -1.20074558335314       -0.37507396901373
C            2.97987232720036       -2.47690594422541       -0.52606775151243
N            3.52505907104012       -3.46398039393957       -0.74732351813802
C            1.16297669639162       -0.82679819793888        0.10153429424709
C            0.28538301843010       -1.76258693984013        0.68128114181147
C            0.89558279934665       -2.95217545573334        1.16636813409124
N            1.32702341660616       -3.89387046287266        1.65753645448737
C           -1.10326888654859       -1.81333950024897        0.74525408456745
C           -2.10790521433306       -0.93794050900873        0.36005005170389
C           -3.39923126283968       -1.43166087748577        0.07650883705980
H           -3.67894526534150       -2.46828941662304        0.08561374561493
H           -1.47708458366843       -2.78868129143396        1.04591758529053
H           -3.86801642675447        1.80401103118168       -0.37171434074176
