30
 energy: -56.476453059837 gnorm: 0.000757165971 xtb: 6.6.1 (8d0f1dd)
N            3.72827148316755        4.00844234276683        0.11611240765118
C            3.40810311681317        2.90655890792234        0.06344276713028
C            2.99867591332376        1.57002227729978        0.00915072452144
C            3.79772217076338        0.48192322643642       -0.19124053150096
C            2.97489328804357       -0.69124748967706       -0.17752778995208
C            3.53322016247828       -1.95282574237732       -0.42498602228094
N            4.08574895760018       -2.92283318810160       -0.69425901269570
C            1.64251751213674       -0.33683644742898        0.02289961843641
C            1.60780945639333        1.13188728731759        0.10650379467412
C            0.64096295128733        2.08589866949005        0.20335779398149
C           -0.77457899234141        2.10048660309832        0.15917060530511
C           -1.74758137774589        1.15253261408564        0.04956173349353
C           -1.76393604408849       -0.32563264580881        0.04151084920739
C           -0.75992896121678       -1.28590123781064        0.19007147684433
C            0.62287589528695       -1.31255726758890        0.20111308287733
C            1.08475652710507       -2.63370164168838        0.45297710456196
N            1.32869745919676       -3.72172802424450        0.72371616942603
H           -1.17074489419009       -2.28573174851053        0.31142522056293
C           -3.10779199228114       -0.71022508415807       -0.06397779530192
C           -3.92564799692684        0.47919982253493       -0.12962219560835
C           -5.32194838502645        0.45201816205273       -0.24500797636206
N           -6.46407705766368        0.38433729077085       -0.33519846639357
C           -3.11242890765431        1.57815012101451       -0.04794954820028
H           -3.43254316967274        2.60293488299359       -0.06402830363539
N           -3.63594752203392       -1.94677098352269       -0.14911864601700
H           -3.06882797931199       -2.76776810649641       -0.03228258874938
H           -4.63511452310606       -2.05521375272486       -0.15184649677423
H           -1.16905904118800        3.11146946199720        0.18652671157320
H            1.05208629588706        3.08977418010533        0.27517732444161
H            4.86233628376691        0.47741539935365       -0.33657580451704
