37
 energy: -65.737956968507 gnorm: 0.000381752344 xtb: 6.6.1 (8d0f1dd)
N           -3.90221435342201       -3.53249114968028       -0.26471377478631
C           -3.50693376005567       -2.45106454232723       -0.20999723943214
C           -3.04949581324528       -1.14089424608785       -0.13713883260392
C           -3.84558486387298        0.00126878446079       -0.38213653732680
C           -3.04081762005247        1.14353099564585       -0.17255891444751
C           -3.48754416181237        2.45449560940801       -0.28549357584671
N           -3.87422496223637        3.53663241913223       -0.37545783356347
C           -1.72141649669332        0.73858094434201        0.16357372086381
C           -1.72596493318855       -0.73694820888557        0.18105519071577
C           -0.78768174892620       -1.66251973414001        0.56958609714051
C            0.61110553552783       -1.67596032671664        0.72941207925640
N            1.09166893484031       -2.86039138471928        1.19570813048299
H            0.44938083961315       -3.57152939100659        1.49872551183843
H            2.05880699901796       -2.93661953977767        1.46007884963499
C            1.58694100877494       -0.73793132840202        0.32377806554970
C            1.59034990187837        0.73411744336772        0.33921913769613
C            0.61231764534318        1.67054744013421        0.73981151439849
N            1.08814480273683        2.85037747818567        1.22369960932899
H            0.44122677841582        3.55730521514285        1.52682765399029
H            2.04805027490616        2.91651903781864        1.51566524759024
C           -0.78349035048109        1.66467014575485        0.54949423686970
H           -1.21289972727737        2.65766978076348        0.66938081808787
C            2.89383667969401        1.14201967921259       -0.01240585659713
C            3.67125764553170        0.00004440675210       -0.28499877857094
C            4.97739185851643        0.00189413397050       -0.76446553473489
N            6.05037890274259        0.00406089890282       -1.18299455714230
C            2.88675399150449       -1.14390494190010       -0.04042676706397
N            3.37696341223918       -2.43468305285709       -0.18905236642643
H            2.71739806214834       -3.10005461771466       -0.56916946175997
H            4.26224918491865       -2.45467806137692       -0.67917789366059
N            3.39109517790776        2.43288730595634       -0.13065113711139
H            2.73574691880574        3.11093979375085       -0.49569081217027
H            4.27722278022144        2.45923513934239       -0.61910100466726
H           -1.22195445257906       -2.65047252158234        0.71123423040118
N           -5.13732347544154        0.00072944015431       -0.74099205999299
H           -5.62854603361748       -0.86807559596211       -0.85992230447677
H           -5.62050905661369        0.86948078161734       -0.88957285376619
