31
 energy: -55.392026305824 gnorm: 0.000594109423 xtb: 6.6.1 (8d0f1dd)
N           -2.63760711077694       -4.04178134556839       -0.58775633069160
C           -2.12520524926529       -3.04351544353401       -0.34886990495763
C           -1.43838273087237       -1.82401859234977       -0.09849462406553
C           -0.06563662350823       -1.98479024460451       -0.15453098866558
C            1.04678972494130       -1.14792014486377       -0.04315218206455
C            1.23757486906480        0.30680100061175       -0.18594131843871
C            0.33327118390752        1.34292581694364       -0.42713947622486
N            0.79003318855330        2.40568263055741       -1.12117740000694
H            0.22116985579786        3.22506757047099       -1.25581038931701
H            1.70193137753123        2.36320313059095       -1.54760454680678
C           -0.99228887190159        1.52247897216247        0.13859187459891
C           -1.24889091753895        2.90305411025387        0.36414327440917
N           -1.39662766224475        4.02950494607172        0.53273388584635
C           -2.02161397100314        0.69288006770087        0.51023194506443
C           -3.23133920961855        1.22918435411875        1.05210816181789
C           -4.17724741107602        0.24445325190691        1.08781378088574
C           -3.61294750369234       -0.96181096715019        0.59787001001140
C           -2.28813872150393       -0.75816962843792        0.27976376667242
H           -4.13179210507553       -1.89934808550025        0.53204653954920
H           -5.18880008094998        0.34957700152179        1.43524564891373
H           -3.36349719127154        2.25239479420598        1.34719490068132
C            2.64203944547641        0.52729536551658       -0.18338702186189
C            3.29024039273832       -0.71073122580411       -0.01925935406260
C            4.67438675662849       -0.86424113920579        0.09218507962973
N            5.81691231818871       -0.94051859836360        0.19303320222547
C            2.31743221771744       -1.71913109000981        0.01845829322982
H            2.52322240199027       -2.76951861971216        0.10298396468561
N            3.31085002838366        1.73746238405110       -0.28238907747766
H            4.29650972363664        1.65231267781178       -0.06700237205586
H            2.88499077488849        2.51519938624183        0.20440008722103
H            0.22740978175486       -3.02265507033886       -0.29249940474445
