31
 energy: -55.409092615977 gnorm: 0.000666813866 xtb: 6.6.1 (8d0f1dd)
N           -6.37252217891356        0.30595333618179        1.01861306909496
C           -5.29278322380380        0.18034134843825        0.64712395540689
C           -3.97788701786820        0.03784263165576        0.18969259538218
C           -3.44503048427791       -1.06309986789668       -0.47026055974708
C           -2.07018815905604       -0.84709561349184       -0.68723429872380
C           -1.31125889614790       -1.83399054010824       -1.31338442920601
C            0.03358479455050       -2.13137628114647       -1.34116729286319
C            1.14714963699233       -1.58630515846429       -0.70282846032795
C            2.31124364299076       -2.33879106363642       -0.55109653720635
C            3.25837780777010       -1.60563878885274        0.17018669951078
C            2.71333047343744       -0.30466845267160        0.41140191010407
C            3.40893831662355        0.64589081426972        1.15980926838282
N            4.05296829600847        1.32176393196711        1.83204382071688
C            1.42012199281737       -0.24573214947088       -0.12189685014297
C            0.73864833954975        0.97764157917788       -0.25906976715349
C            1.61012317672772        2.09652386868339       -0.24503370561063
N            2.27342828963049        3.03096914875951       -0.33254257849831
C           -0.62719913280361        1.32890395941001       -0.36308917386423
N           -0.89681830153822        2.64341109734515       -0.51799269802281
H           -0.15770221724152        3.32744064322116       -0.51399633542577
H           -1.85116682207750        2.95399115763498       -0.55936112843718
C           -1.77555889427670        0.50092763991832       -0.20229460929699
C           -2.96236552837072        1.01260980396215        0.31102925518771
H           -3.10005499528795        1.96128551430431        0.79894501102566
N            4.46709870557898       -2.00673167620338        0.58033913505964
H            5.04532446029368       -1.37977028786504        1.11501231794990
H            4.79258627614764       -2.93794103663696        0.39039485771375
H            2.43819557482935       -3.35130339453362       -0.88554103186291
H            0.26652254367319       -3.06701761184435       -1.83962244346545
H           -1.93144013401369       -2.59329282471455       -1.78040690965875
H           -3.97673394314284       -1.96229253059192       -0.72048661461991
