31
 energy: -54.601671063234 gnorm: 0.000647644712 xtb: 6.6.1 (8d0f1dd)
N            4.04996908046551        1.93425528573136        0.33184305092733
C            3.29962862599389        1.07817392905640        0.15618084067485
C            2.51421918151758       -0.06426893916759        0.02501693034763
C            3.05479608960294       -1.36484805760874        0.35313362865848
C            2.05351018136112       -2.31418286814795        0.21609915521903
C            0.88172422962387       -1.67835595118497       -0.21931161642752
N           -0.11848492985553       -2.34945834381677       -0.70119925129317
C           -1.38606157428955       -2.16185605060091       -0.92524523327717
C           -2.26978528540524       -1.27632866846162       -0.32361591021753
C           -3.61487493424641       -1.63401131602778       -0.08526521732428
C           -4.22196544851368       -0.64313382949307        0.65075673759273
C           -3.31116070461911        0.41873152897522        0.81205924540854
N           -3.63431928022523        1.60627636674219        1.45313139348403
H           -4.46662294233267        1.53481964327963        2.02134479010416
H           -2.87100116866116        2.05414323223478        1.94089756913458
C           -2.08022525223242        0.07464656559062        0.20993031554700
C           -1.10610556717077        1.03587974880602       -0.15924768748202
N           -1.53707458175568        2.32464288120559       -0.15808229639270
H           -2.52625926165733        2.50717452915974       -0.13793407128697
H           -0.91683410774141        3.05525446006251       -0.46726685719678
C            0.27812460605607        0.87428520279144       -0.45433928447196
C            0.92842096508069        2.06242951201706       -0.85982293235093
N            1.38946640790612        3.02801873438157       -1.28362347002176
C            1.15737423611772       -0.20390244477268       -0.25504240533267
H           -5.22814722532334       -0.64858180464342        1.02931545748354
H           -4.05030705177585       -2.57384030601516       -0.36920569650217
H           -1.83128294154264       -2.95829914419244       -1.51956293789979
H            2.15572714502250       -3.37191391470593        0.35716309741514
N            4.32536351949613       -1.55382779761420        0.73142620479051
H            4.65499395976986       -2.46818372948064        0.98401701188872
H            4.95911930343383       -0.77235323080247        0.75616786499967
