29
 energy: -55.955662522060 gnorm: 0.000750616063 xtb: 6.6.1 (8d0f1dd)
N           -5.46371277688626       -1.06174212223564       -0.35527817052485
C           -4.56283640165851       -0.38754952189491       -0.12360266348950
C           -3.52425844672659        0.49825652789857        0.16710622320265
C           -3.68045925022111        1.73079449703969        0.81356408077724
N           -2.54419070140471        2.41599986288916        0.95332196752936
C           -1.58818829597911        1.72243830671570        0.32474721767426
N           -0.44735141688111        2.23213221773982        0.04777187288020
C            0.73762796900457        2.00324340313357       -0.40219963492785
C            1.55719914876792        0.90558329527343       -0.16594144662473
C            2.96085884780101        0.93185412643208       -0.25013643756444
C            3.45823718795203       -0.38738536243355       -0.03290011265310
C            4.80707792566814       -0.74256393520762       -0.01100116907317
N            5.92106074274336       -1.02678187719055        0.01475342819761
C            2.37734413356302       -1.25690018817549        0.12874195987243
N            2.48798090372324       -2.57601517332361        0.34944911221028
H            3.40166887158765       -2.99061532093608        0.41223510213578
H            1.68498480661928       -3.15536376635281        0.51611169665376
C            1.14510603124252       -0.49646998233132        0.02804809369032
C           -0.04636252384430       -1.14754344515589       -0.11979621840076
C           -1.42814295248454       -0.80157706377753       -0.22564214993107
C           -2.21317803000699       -1.98259389386837       -0.34214103750833
N           -2.75550395990719       -2.98692118802391       -0.45127608967538
C           -2.13313328023212        0.37927436920480       -0.10100435008159
H            0.05697004676215       -2.23039406586856       -0.12845531473766
N            3.74928485684162        2.00021766634262       -0.45417242831050
H            4.74818052486794        1.89578714092687       -0.41457950678528
H            3.36105542758233        2.92137931326407       -0.54219205193169
H            1.16769568324354        2.84881366329252       -0.93733353226061
H           -4.60323362113886        2.13901930402239        1.18629690025554
