25
 energy: -47.489072690613 gnorm: 0.000917157388 xtb: 6.6.1 (8d0f1dd)
N           -4.17301589074251       -2.22064299428066       -0.53208804219856
C           -3.42988183662384       -1.36766242591979       -0.32146576962401
C           -2.58701589022682       -0.28594181959776       -0.09233868448539
C           -2.96110315341772        1.08936170687146       -0.24942262230382
N           -1.94443184079729        1.92308751822786       -0.03072941022602
C           -0.88230661478673        1.19939760418566        0.33907661974751
N            0.27819032762207        1.73338779502512        0.43494812051031
C            1.54244786006618        1.41355287210682        0.43686767899009
C            2.19038287878950        0.27494433469350       -0.01805349840890
C            1.81602274809285       -1.13267527203693        0.03411686954687
C            3.00948226568093       -1.82203299073632       -0.22049650899844
N            4.04414764318523       -1.01983955373847       -0.47733130558117
C            3.59114723758093        0.23371801192842       -0.33696889167773
N            4.40857872371226        1.28365514132178       -0.51376638772972
H            4.05755551116159        2.22369767087697       -0.51098505738023
H            5.34603845168260        1.10167689361399       -0.82522341029876
H            3.13842057687237       -2.88914042599471       -0.24101774040858
C            0.66937566259803       -1.74292094251708        0.56964393006238
N           -0.55061719327962       -1.33470849138904        0.58360865391558
C           -1.26889456851668       -0.28288981439506        0.37628560071919
H            0.80209738984842       -2.74653335588706        0.96606283003557
H            2.17541189334489        2.24296870168600        0.75034617036602
N           -4.17291913031034        1.52422048151923       -0.59520880757978
H           -4.91452408513907        0.87059682650599       -0.77756128457923
H           -4.33575791679788        2.51388100402976       -0.65936372421356
