23
 energy: -44.029482295366 gnorm: 0.000997901975 xtb: 6.6.1 (8d0f1dd)
N            1.77871046104914        3.51052049823228       -0.42920568269525
C            1.40812054703886        2.42792671047407       -0.36002443149800
C            0.86060601889799        1.11639099585933       -0.30366791549639
C            1.81382029316059        0.11612480764491       -0.25620850199731
N            3.11393571598028        0.39245099050457       -0.06121509904033
C            3.62727605987439       -0.70485067808740        0.46670218189342
N            2.79282112794173       -1.73761683043413        0.65253427022097
C            1.64097919606072       -1.35113647135132        0.10708875879645
N            0.65152237881886       -2.13016336064407       -0.12989596527519
C           -0.58833617224795       -2.18117124462204       -0.44036118081304
C           -1.60170109334093       -1.26825616917642       -0.10910351191538
C           -2.95790219043024       -1.56453100022085       -0.05796094108825
N           -3.73432032132340       -0.48881146819696        0.16641695085269
C           -2.92635444864664        0.56085294898877        0.21960858748854
N           -3.40820315520778        1.79288968383426        0.41659805601182
H           -4.39658433057390        1.88423427456998        0.57601796336178
H           -2.80834046896928        2.58208246721707        0.57732780718895
C           -1.51901562704541        0.18660404957241        0.04600687458885
C           -0.55353275834464        1.12933765585192       -0.15497148138715
H           -0.92601780735627        2.15150768787161       -0.14612740726304
H           -3.40650063938139       -2.53757007615784       -0.14031170360164
H           -0.89358025005948       -3.09183028604357       -0.94995894851031
H            4.66404065730385       -0.77164752798675        0.74112571947857
