27
 energy: -47.718443890190 gnorm: 0.000952555454 xtb: 6.6.1 (8d0f1dd)
N           -5.75369166614304       -1.42494555852186       -0.46234496027157
C           -4.67183859648566       -1.10033195516344       -0.25527052764409
C           -3.35778506009627       -0.68833379853881       -0.00280978314504
C           -2.32936079257139       -1.47859959656161        0.54702344587172
C           -1.16390328881271       -0.72636537922843        0.59079648694824
C            0.03876951069921       -1.27789876291722        1.09092885196011
N            1.25078264373648       -1.07738722716333        0.72916890520891
C            1.96582894086468       -0.17549702896030        0.11852148907740
C            1.77198105108105        1.31047260061323        0.03780956009798
C            3.02057371019988        1.84155266182495       -0.38853172314178
C            3.86078272801240        0.81067252505396       -0.71314011118620
C            3.23143878300621       -0.43244155295143       -0.42303500017840
C            3.80575653414919       -1.69203214994169       -0.60535305611880
N            4.29418959631466       -2.71952822553751       -0.76814753806930
H            4.85356584657545        0.89943265580328       -1.11668260172619
H            3.23419677975697        2.88941846666295       -0.48684868070896
C            0.64376282761921        2.07341777607243        0.10253613324944
C           -0.75746756365712        1.82667480988005        0.16671271743590
N           -1.49306600187313        2.96412366530072        0.18060281083307
H           -2.49502283943360        2.92207146745953        0.23307085428769
H           -1.05291788485580        3.86548063581793        0.12498585602859
C           -1.48583368199588        0.61996870676656        0.11541822745348
C           -2.85525965589013        0.59233911948062       -0.22235784953564
H           -3.42869202651289        1.38937507106515       -0.66057231759066
H            0.85422003953439        3.13129850238123       -0.04557738095538
H           -0.07911651418228       -2.11853254532052        1.77233860397939
H           -2.42280823203826       -2.50761069098062        0.83843925463994
