34
 energy: -56.953521969836 gnorm: 0.000925902327 xtb: 6.6.1 (8d0f1dd)
N           -2.61972555769262       -3.22227494831640       -0.32075486993420
C           -1.96250507891736       -2.28097413304681       -0.23710542391437
C           -1.09275615153003       -1.16801778541430       -0.17214437069692
C            0.29081688522987       -1.48653445393670       -0.28027701720676
N            0.55727660232186       -2.75944795121250       -0.66247930189416
H           -0.19186644834077       -3.42188227859037       -0.77748095698295
H            1.51201359597007       -3.07605080499900       -0.68034679259196
C            1.40865246107621       -0.71641102254559        0.09813836747990
C            2.57328102982755       -1.32894500633049        0.62219822751026
C            3.56325753174646       -0.36842252497839        0.78950115937344
C            3.09071262099286        0.84795369316484        0.30307263820832
N            3.85683670638096        2.01767387382346        0.28236981609417
H            3.32445953101628        2.85530832255030        0.47811678343613
H            4.66378566280198        1.94463297946525        0.88812863764977
C            1.74658117080382        0.69676971438396       -0.10831458689636
C            1.03841384747649        1.73343553696639       -0.75455271528441
N            1.81607187234058        2.69922239593977       -1.34503777808348
H            1.35913420970099        3.39690293676866       -1.90686925508869
H            2.76470190053413        2.46196412278368       -1.58139280806817
C           -0.32665239052779        2.03788104231539       -0.73385228807495
C           -1.44496579029134        1.43860934448698       -0.18285610186966
C           -2.64434176558536        2.11480970382351        0.04518281242475
C           -3.56558292794423        1.16510261118168        0.50133218929004
N           -3.05014455504485       -0.08576097702557        0.49786080848006
C           -1.78090136363046        0.01414338503918        0.10330967683280
N           -4.84069797839911        1.36289526484061        0.88116431181974
H           -5.19892648304418        2.29247409247400        1.00291795161173
H           -5.33888562495337        0.58102598220917        1.26823085881834
H           -2.81519531591765        3.16909684724035       -0.05425960643917
H           -0.54094407748585        3.02634348813926       -1.13548700733630
H            4.53457117882555       -0.53622936601133        1.22044652611231
N            2.72631277058283       -2.67572463486206        0.98767186634757
H            3.54949157080527       -2.80495409932287        1.56226620661479
H            1.91118720836963       -3.06350843180479        1.44708400615664
