28
 energy: -50.648905851905 gnorm: 0.000814464456 xtb: 6.6.1 (8d0f1dd)
N           -4.37824624254413       -2.04816955776122       -0.00102281159502
C           -3.74441829988980       -1.09046476032113       -0.06957187771589
C           -2.96943094018083        0.06506798486928       -0.15446671647817
C           -3.39381706702124        1.33273965174378       -0.59301455408878
C           -2.35068253475539        2.24338718978523       -0.53929763866181
C           -1.21497434966979        1.61623845381995       -0.01671264734389
N           -0.06339917688393        2.18254774190133        0.12406431780646
C            1.19734753634198        1.86554945091069        0.25354673749970
N            1.99163589974169        2.83265513941745        0.76967169255646
H            1.60096137400147        3.74185843202918        0.94980018175978
H            2.98893650873369        2.72300292039904        0.72402933489340
C            1.83749275809595        0.68214567186487       -0.21720800445855
C            3.13226408096354        0.61531576335438       -0.73155790563489
N            3.54993358164290       -0.64304562603667       -0.90705178169790
C            2.57540390606505       -1.44055013074927       -0.45733747559949
N            2.73607357373814       -2.81396017814783       -0.43479613206342
H            3.53567640477214       -3.09749087140213       -0.98512321338901
H            1.90391328592228       -3.34218392686669       -0.65999910702975
C            1.44932105584867       -0.70624217966493       -0.02134311498021
C            0.34770023282060       -1.23025079901046        0.69892849654911
N           -0.90298576317218       -0.84782913488095        0.59751743543997
C           -1.61393592768194        0.15770927981345        0.23364161884969
N            0.54178335347213       -2.34628761154526        1.43661590710760
H            1.46811073216536       -2.72014312577254        1.54323122757335
H           -0.24355461280746       -2.77515434662111        1.89430134446594
H            3.75810599210707        1.43340763155948       -1.04104023225219
H           -2.39927901030548        3.27818450135732       -0.81824695035951
H           -4.39367292382054        1.54968355895455       -0.92687716585291
