31
 energy: -60.204843971679 gnorm: 0.000970829277 xtb: 6.6.1 (8d0f1dd)
N           -2.82014406519088       -4.00269713130181        1.44097294699132
C           -2.74104117215160       -2.91093559503792        1.09272291979061
C           -2.62625697287872       -1.58465773436724        0.66924783138078
C           -3.62574936294379       -0.62452053560542        0.62045030855967
C           -3.11830563478002        0.58178153463503        0.08531816888761
C           -3.91236423554372        1.72308940435708       -0.07338732111753
N           -4.63463171895234        2.60754648666174       -0.19581556385906
C           -1.74312494306479        0.42267519302775       -0.17544009933718
C           -1.45326438167175       -1.02611937127425        0.06741783368514
N           -0.49069779288313       -1.74627581964837       -0.36467894035830
C            0.70259565707826       -1.68973573837321       -0.89431534268377
N            0.98749915372314       -2.62888888043541       -1.81283606459086
H            0.29403986114873       -3.31988342051065       -2.04532677842355
H            1.92097561038323       -2.72432035007536       -2.16885379141602
C            1.73864752653757       -0.83404149564448       -0.43259968481763
C            3.07246743923053       -1.17901759825265       -0.36555865523262
C            3.82400759258051       -0.06641151753078        0.08257048535018
C            5.20159691695510       -0.03592510136150        0.31077708586590
N            6.33190957493086        0.01513218428323        0.51264641233978
C            2.95746025106972        1.02102024624089        0.24317377972369
N            3.33744315071478        2.26145432182644        0.61743155685015
H            4.29170367855825        2.40055786043917        0.90331168803434
H            2.66186912932171        2.95369459669595        0.88808272490361
C            1.61493452345189        0.58456383326148       -0.06617281251386
C            0.59053755556672        1.49323731625673       -0.17118580807295
C           -0.81664298386236        1.44878715009775       -0.33118524072439
C           -1.33793394588451        2.76231558279127       -0.49294215834446
N           -1.64242145359369        3.85572096275231       -0.65592704395526
H            0.92701466471612        2.52395899474533       -0.08158542982289
H            3.49356141480985       -2.14813538617336       -0.56179541860095
H           -4.64217358837127       -0.76455589607839        0.94300775760905
