27
 energy: -46.134188217035 gnorm: 0.000739830506 xtb: 6.6.1 (8d0f1dd)
N           -5.00059291760820       -0.41534829476315       -0.17361885212503
C           -3.68280734576923       -0.22480594059783       -0.07116044645342
N           -3.15616232419169        1.02345896493650       -0.01424404231509
C           -1.84165167588307        0.84113194993552        0.07667896914169
C           -1.01782852361786        1.95444865751850        0.19589629416734
C            0.34911257247961        2.11298156690950        0.24289920607382
C            1.45283230616608        1.27428088776118        0.13775675362598
C            2.73621402151023        1.85401468088103        0.06846489868241
N            3.70282001304471        0.96488435364369       -0.10968956726485
C            3.11481928474092       -0.24037738112836       -0.12136610205867
N            3.91367755909223       -1.37532257182217       -0.28671472356507
H            3.63589764072671       -1.94970564976274       -1.07497853857359
H            4.87862011226369       -1.07998721750296       -0.38883334806701
C            1.71065992512998       -0.17013262828200        0.04881880981395
C            0.90093695333509       -1.30497662814618        0.23798819003714
N            1.55614499956115       -2.47669253983024        0.42729139485308
H            1.02926326146241       -3.30126060355186        0.65775731426373
H            2.54762282877051       -2.45482714852877        0.61687118063953
C           -0.50340031016262       -1.45250003960190        0.20572327799111
C           -1.59675247090825       -0.63523857963821        0.08124078500184
N           -2.80824676690942       -1.22854678296610       -0.00385599295898
H           -0.81728538780544       -2.49148629920644        0.26833146113198
H            2.96336372584178        2.90394313094236        0.10872426845705
H            0.65297159801385        3.15222785967153        0.33817974739417
H           -1.59489134741279        2.87094411345630        0.23939573002825
H           -5.36146338647736       -1.34885089463253       -0.24139484652109
H           -5.60355983741116        0.38272284840328       -0.25219380330395
