23
 energy: -40.019317338633 gnorm: 0.000874595531 xtb: 6.6.1 (8d0f1dd)
N           -2.21206078742658       -3.26243831769295       -0.00170325024246
C           -1.62866792125623       -2.27649164771998       -0.00052527976629
C           -0.80636921044600       -1.11090911428922        0.00041355844654
C            0.56184794782323       -1.42034591359308        0.00022536093150
C            1.71741796042217       -0.67856519790542        0.00093558196585
C            2.05182918224270        0.77201302402173        0.00227149871505
C            3.45778617398254        0.78246680972968        0.00225661523443
N            3.98918154630161       -0.44076767988806        0.00114141490328
C            2.98537744325004       -1.30633628859795        0.00036539041200
H            3.17042958768843       -2.36483831916401       -0.00061207075566
H            4.09019641814358        1.65140637541761        0.00304792850582
C            1.32676042385570        1.94943669524624        0.00337405334047
C           -0.02510596563543        2.26522399610165        0.00365560990294
C           -1.20117618444474        1.53174338375392        0.00291534684530
C           -2.45625742792392        2.15611591974975        0.00346419098241
C           -3.41622296958894        1.15216378539489        0.00245828987330
N           -2.87630240979902       -0.07019085458270        0.00130444476435
C           -1.54594488644672        0.07023259503488        0.00148505188408
H           -4.48568303329600        1.26427184275832        0.00252782874544
H           -2.63651761128758        3.21320354294980        0.00447013353638
H           -0.21472456561851        3.33475327841880        0.00467851391925
H            1.97176474136739        2.82371476242592        0.00419966661757
H            0.74735669109222       -2.49231532496984       -0.00070654556159
