32
 energy: -54.315817852517 gnorm: 0.000696629176 xtb: 6.6.1 (8d0f1dd)
N           -4.39987462964978       -1.09344033286577       -0.99947537498131
C           -3.61906813259242       -0.30059474449686       -0.70837160760755
C           -2.68412026838873        0.70120551961816       -0.44027958561755
C           -2.93293722726616        2.10382138502112       -0.67566876043834
C           -1.82314984532288        2.79853038042432       -0.34126948650782
C           -0.78018867221472        1.87717001207487        0.04826704369469
C            0.42985518508925        2.34022835609828        0.46058448583547
C            1.72991259695759        1.77012765033131        0.58758535600676
N            2.65508184867234        2.60817697778570        1.13000852122690
H            3.62060960945289        2.33121898080028        1.14122327719010
H            2.43878445315230        3.57919603980376        1.27458960246447
C            2.19152506725061        0.56931451189615        0.05036814299482
C            1.56812126442041       -0.72868931134791       -0.14278144110828
C            0.38188832323899       -1.26658046390345        0.46630514375427
N            0.52274856552989       -2.52486885776217        0.95545922108633
H            1.43374764070181       -2.94432362055724        0.99757733654269
H           -0.26080733282147       -2.98851126806853        1.38478203777686
C           -0.88964777609933       -0.69951154387165        0.51606965187219
C           -1.88451095021923       -1.49437721653685        1.12352227286100
N           -2.63483512346620       -2.14962214106997        1.69989331243502
C           -1.37725282052749        0.53460330904464       -0.01150395284159
C            2.51485233193215       -1.54148052839450       -0.76566603666392
C            3.69448043224860       -0.78429178074493       -0.99865762156623
C            3.52583313915475        0.45559805706527       -0.45382376720947
H            4.23385784855938        1.26135355360689       -0.52619161368780
H            4.56201010670720       -1.14651376176375       -1.51938044971157
N            2.38705077647828       -2.87619919587928       -1.11527760168064
H            1.44345834385204       -3.18472354934517       -1.30049633158344
H            3.04132572168528       -3.17453572974011       -1.82395564537313
H            0.44783517697055        3.41842015180751        0.60806359369382
H           -1.68005440876980        3.86076291823627       -0.41409022162664
H           -3.86175825871555        2.49125547043367       -1.05246491932948
