32
 energy: -59.920133286132 gnorm: 0.000385103104 xtb: 6.6.1 (8d0f1dd)
N            2.89108025151881        4.27443369932801        0.16167369128068
C            2.84181410615822        3.13102274080659        0.05149634905799
C            2.72822775264108        1.74328713552215       -0.05607732954633
C            3.70323793487684        0.85950370329116       -0.43893320952983
C            3.16084875569519       -0.45693528555467       -0.40961343301708
C            3.92098935362353       -1.56599329648935       -0.80365790761623
N            4.60833721039243       -2.39973022219344       -1.19236643842932
C            1.81602257809905       -0.40564717383499       -0.02743908928216
C            1.48648427970381        1.01539075131913        0.17078289276009
C            0.38327922547902        1.72689152320720        0.51847076962498
C           -1.03102668886264        1.51936963402298        0.61313275623511
N           -1.68822127216896        2.62937614662357        1.01928144288886
H           -2.66795546521320        2.57205522685326        1.24951922051039
H           -1.17036151326923        3.43803942730803        1.31967824743235
C           -1.80445202737623        0.41403138956466        0.25000462180311
C           -1.48094174876795       -1.03005347205743        0.26045169911414
C           -2.69425231015704       -1.71438963763523        0.16008726681000
C           -3.73966517720175       -0.80097643533352       -0.01777117171688
C           -5.09032714152858       -1.08730813690171       -0.23854940459992
N           -6.20861240115240       -1.26717284818667       -0.43147185785373
C           -3.20795300028573        0.50192130535837        0.04106506305023
N           -3.97551065981420        1.64486930815393       -0.08172751599001
H           -4.92879052998396        1.44900868554543       -0.36076694624202
H           -3.56440992372497        2.39570314404698       -0.61951506335875
H           -2.80631214981111       -2.78222504235749        0.16333597210755
C           -0.31506170638104       -1.78331971768958        0.37793049156200
C            1.04703667335126       -1.55836771456754        0.23894503404172
C            1.78406375539770       -2.76551233453090        0.39237806707670
N            2.29651916777020       -3.76968554299795        0.60159429577930
H           -0.53916635436154       -2.83680868829163        0.52737937034143
H            0.62120714456350        2.77665189689020        0.68711722727395
H            4.71339766118698        1.09860543467648       -0.71718000996662
