30
 energy: -50.073093597415 gnorm: 0.000643282614 xtb: 6.6.1 (8d0f1dd)
N            4.68886266158889        1.74493612246516        0.74225634432951
C            4.05297332601289        0.82335394563276        0.46739417894036
C            3.24162529155896       -0.25701421183693        0.14433407926396
C            3.61944969195815       -1.46255844551641       -0.41679241004655
C            2.49478919824684       -2.28997559705532       -0.56879180804819
C            1.36786177533772       -1.63995028018462       -0.08604691011693
N            0.22304544648204       -2.24965161240071        0.11873777544751
C           -1.00047805141947       -1.90490404626047        0.34390959176299
C           -1.75278806247269       -0.75814006319945        0.06215578293871
C           -3.15010021937540       -0.83832243091211       -0.08968568464728
C           -3.66058477156078        0.44154754756012       -0.37701154922437
C           -2.62618525794635        1.35028538927106       -0.34278298168447
N           -2.77451563330480        2.71348308749050       -0.57740768675419
H           -3.69021765447575        2.93866581427435       -0.94399921648562
H           -2.03721135302089        3.12043248556582       -1.13822707367203
C           -1.39307167945216        0.66835921891901       -0.04023200212169
C           -0.24543878504893        1.34437128254075        0.34948682896746
N           -0.34727723968870        2.69369154312238        0.56775304608904
H            0.44277796776757        3.16341527656211        0.97745317260040
H           -1.25939838121393        3.07139482772738        0.77122128408346
C            1.12026626880263        0.89897572653247        0.45293724802870
C            1.79554278778125       -0.25972649166955        0.28330161376543
H            1.78906028561242        1.74389734881980        0.61653641814132
H           -4.69207620979615        0.66811931675425       -0.57953496981549
N           -3.93315655028495       -1.95552730221044        0.01638494504344
H           -3.48587428946534       -2.85177099422450       -0.08085448558044
H           -4.85130623339724       -1.89298530717904       -0.39198754364354
H           -1.59113399778583       -2.74891100604686        0.70462226438371
H            2.50396150910626       -3.29023810789873       -0.95741669612661
H            4.62721065346627       -1.73124438745737       -0.68193428639759
