24
 energy: -43.753343141285 gnorm: 0.000751962856 xtb: 6.6.1 (8d0f1dd)
N            4.41786764831270        1.83336475697187        0.11937080910635
C            3.65357216133146        0.97562519734046        0.14182014960863
C            2.73498832209415       -0.07646156495886        0.17729560726031
C            2.99009298569232       -1.38299309491711        0.65572409031159
C            1.85181154389427       -2.15685112851760        0.56931289108605
C            0.82136008569623       -1.39976499258957       -0.01243093463004
N           -0.40168511572005       -1.78293145405204       -0.12124407056905
C           -1.60420368841890       -1.30526648119069       -0.27717228537331
N           -2.52468674391226       -2.15813609150362       -0.76913466792183
H           -3.49299805085425       -1.89067086340202       -0.78376165456726
H           -2.26356180406608       -3.10525887277358       -0.98412728804111
C           -2.06829874554673       -0.02193671880501        0.15840263898725
C           -3.34409948753118        0.24776827316625        0.65143659996294
N           -3.59561319237561        1.56373380782517        0.70461729386943
C           -2.53419576089851        2.18619551794442        0.20912676536891
C           -1.50990652160009        1.28686261411131       -0.13981053139489
C           -0.31791372587385        1.62568117940576       -0.80562299753354
N            0.82981084972174        1.05532564415028       -0.70650201245835
C            1.41096604298027       -0.01711186932596       -0.28914982823511
H           -0.30980172369105        2.55399188471263       -1.37125399413552
H           -2.50061201628327        3.25739049164227        0.14065311617284
H           -4.07406205394949       -0.45655007856264        1.00922883797027
H            1.75942551129671       -3.18828559663912        0.84886632429960
H            3.94354670960228       -1.70579951363309        1.03525722665478
