28
 energy: -46.637527752995 gnorm: 0.000749835014 xtb: 6.6.1 (8d0f1dd)
N            4.99340797351373        1.59694485841258        0.03179522651819
C            4.16669706833568        0.79648124114692        0.00954843621697
C            3.17845491446180       -0.18700432070219       -0.01699362180844
C            3.43891050795112       -1.58917110031281       -0.15811228279708
C            2.25750676312835       -2.25330977727010       -0.13088009380552
C            1.17226297510325       -1.31390874745745        0.01521736271406
C            1.80180660324886        0.02728980122474        0.08245769125541
C            1.28992281212748        1.31852040890095        0.24559391249801
C            0.02552561294871        1.85075544109768        0.29485388909712
C           -1.27443019469714        1.35424371310398        0.16072998025739
C           -2.34882594286391        2.24508345636362        0.14528526626307
N           -3.53420885847800        1.64489670544944       -0.03021518257884
C           -3.29635582609164        0.34217270019385       -0.09167909993007
N           -4.35765828782866       -0.54640969664575       -0.26556077857510
H           -4.24846051884782       -1.15355101230104       -1.07048186431635
H           -5.21932026478789       -0.01605462837906       -0.33751125078403
C           -1.90480426246576        0.02612685140932        0.04309931054690
C           -1.43162941157653       -1.27103140074319        0.18817067167502
N           -2.35714396158335       -2.24998140990643        0.35147432198821
H           -3.30565837001461       -1.97898096500027        0.57200765959996
H           -2.05838725512617       -3.18585193942824        0.56583491486760
C           -0.09444539158193       -1.79128997003587        0.10527959219617
H           -0.11729197951684       -2.87998791657786        0.08093162609631
H           -2.29535990214440        3.31515012669002        0.22566643613190
H            0.01818458566636        2.92814747704575        0.43032198317405
H            2.08260006147282        2.05636786972461        0.33097801523973
H            2.11974612105903       -3.31589320350912       -0.21174305412811
H            4.42146425418726       -2.01264870310029       -0.26395243311886
