27
 energy: -52.511821906338 gnorm: 0.000421060691 xtb: 6.6.1 (8d0f1dd)
N           -5.95016090881214       -1.17651016376211       -0.65240831221358
C           -4.85443510806871       -0.96702576312884       -0.38254559270217
C           -3.51829952521629       -0.70131033159170       -0.05506180562693
C           -2.61527722083485       -1.60156866193088        0.53898018028443
C           -1.37739853474921       -0.98014391452348        0.64827748166005
C           -0.26007266752602       -1.64152891857410        1.20578298669276
N            0.95940157153920       -1.56511601234001        0.82647301529635
C            1.77027645518355       -0.77412458215669        0.20738429558603
C            2.99662383960013       -1.14270748574331       -0.38119047021723
C            3.47107372293288       -2.43886791371488       -0.59421334277597
N            3.86378885652750       -3.50102256742250       -0.78260317637085
C            3.68667200072567        0.06437217450461       -0.61924156272356
N            2.98288288246055        1.13801808951180       -0.30235689639636
C            1.77319034512452        0.72630425150228        0.11595288801470
C            0.74329746832271        1.64362783998620        0.20635235997876
C            1.22245887252071        2.97300685891340        0.02618163317768
N            1.56039086906350        4.06371181018115       -0.08111067444808
C           -0.68838013281309        1.53540910769330        0.28782107524644
N           -1.32634464814570        2.71724097931817        0.38349844801398
H           -0.81499204292377        3.58515067147563        0.34417144477247
H           -2.33036236181738        2.74684988581674        0.41753505149123
C           -1.52156979714456        0.39524726095784        0.17177636650882
C           -2.86698115820436        0.52068725146183       -0.22891522107557
H           -3.32565392748254        1.38071748556217       -0.68316530901940
H            4.68727632723258        0.15944780089798       -1.00128909138922
H           -0.45941767770371       -2.43384632919157        1.92226486340790
H           -2.83320182229193       -2.61563778490176        0.81557402022528
