28
 energy: -50.655488125706 gnorm: 0.000695137625 xtb: 6.6.1 (8d0f1dd)
N           -2.40813865781456       -3.19669608059528       -0.35904925471230
C           -1.72892558707964       -2.27545189164484       -0.24742167296649
C           -0.83409235729578       -1.18761929040283       -0.08868147954444
C           -1.52970381300050        0.02623073157219       -0.08578226820105
N           -2.83236508463765       -0.01315536182716       -0.35459584648575
C           -3.28075663996863        1.24298213402702       -0.13065659421636
N           -2.36164964334688        2.11577482884791        0.29818476255248
C           -1.20719821359280        1.42909758060464        0.32802130661572
C           -0.06157002900492        2.08419797432597        0.72433203764737
C            1.28843212231262        1.75503982596167        0.66096683533005
C            1.99574301713472        0.65411238250351        0.24046282791400
C            3.42644691868182        0.73794026719884        0.04199514827321
N            3.94470796105521       -0.40767469068823       -0.37869337888316
C            2.93520951248605       -1.29177584094675       -0.41226741813411
C            1.69623790318815       -0.74789431949923       -0.06858671355183
C            0.53286180456819       -1.55217401397302        0.01766817435849
N            0.75416178216209       -2.87831670054057        0.14379386960987
H           -0.01596016659967       -3.52557453649688        0.09266265405878
H            1.69157854511463       -3.23200108187206        0.19791715641971
H            3.15177085104518       -2.28509031663767       -0.76518259120401
N            4.22382861095461        1.81783905563281        0.24294630902466
H            5.15539061464155        1.72879741917979       -0.12793560983376
H            3.82199728101243        2.73893313667272        0.23456082431260
H            1.92605310972003        2.58314806255777        0.95717719836452
H           -0.27286336819595        3.09388663134776        1.05666980146622
N           -4.55666489590703        1.57023080953814       -0.32608217438120
H           -4.86441239807571        2.50529889219373       -0.13066229259236
H           -5.19805193265794        0.86218824705975       -0.63478815554080
