31
 energy: -59.407978272225 gnorm: 0.000929659767 xtb: 6.6.1 (8d0f1dd)
N           -3.44683209954349       -3.45809278709031        0.85546873514122
C           -2.93008137312942       -2.46937258321884        0.57721167038709
C           -2.35629267926229       -1.23628387095774        0.27177632655721
C           -3.03489184085725        0.00249531498773        0.34330975283634
C           -2.14520505581358        1.04067058097628       -0.07108233993883
C           -2.55482514379014        2.37412210683220       -0.02602997462296
N           -3.02149576095231        3.42133694945101        0.07259735275050
C           -0.88306339806039        0.48124321859457       -0.32805423934858
C           -1.06048507180463       -1.00273819758504       -0.23547632422672
N           -0.33470269510667       -1.93775216079922       -0.75214976705992
C            0.90029818940671       -2.19373086665518       -1.03112955899439
C            2.02910548975577       -1.65230959001903       -0.42423349835986
C            3.21997663103374       -2.36497451968544       -0.20876506901254
N            4.11932010492208       -1.65915273479108        0.46478908041803
C            3.59640576424383       -0.43693695600788        0.64858731358469
N            4.35241668136920        0.52542943548530        1.27910098887078
H            3.85866585469531        1.12121008166255        1.92951653016869
H            5.19855728014533        0.12854318765180        1.66626456950075
C            2.27862273536228       -0.31793815244260        0.11963908738570
C            1.66482225000731        0.91641613559809       -0.16717258954648
N            2.46027958365842        2.00628599474277       -0.05993917836477
H            3.45868219468894        1.87644271843977       -0.00669606766372
H            2.10217896803565        2.91486980236090       -0.30738986890292
C            0.29196985885398        1.21844216236958       -0.48258860912394
C            0.07473774181396        2.57224117798897       -0.83350583477893
N           -0.03118558367488        3.65349586905622       -1.20992873523927
H            3.40702909075603       -3.39019095430965       -0.46769962139626
H            1.03886441925544       -3.04325781172910       -1.69406029668023
N           -4.29186303420686        0.18795344310404        0.74235416064895
H           -4.84458574008624       -0.59214382594969        1.05703325656458
H           -4.69619820802380        1.11022628854627        0.71810596244270
