31
 energy: -54.591418777590 gnorm: 0.000881216911 xtb: 6.6.1 (8d0f1dd)
N           -0.97471641367667       -4.01599064003735        1.25561582096094
C           -0.73710687267433       -2.97351408471605        0.82982216285399
C           -0.46568110606200       -1.67899206144843        0.33614195809050
C            0.79423281666876       -1.58250681404834       -0.29174711513416
C            1.52261822908172       -2.67795231007000       -0.72911259147284
C            2.75048797320293       -2.18673628741698       -1.20236781336603
N            2.88693712389276       -0.88669454398586       -1.01096281806148
C            1.73686569756821       -0.44128487940065       -0.45087543187051
C            1.73203340639388        0.84427926936432        0.05081875945031
C            3.02808126108457        1.42632564336664        0.06453909561921
N            4.04783740929686        1.94934722038440        0.13002294026804
C            0.68233012025345        1.73984230552055        0.44000291555689
N            1.08380113062169        2.86732427828012        1.07212087213766
H            2.06424796943817        3.09035003226283        1.13713621601760
H            0.41145690136363        3.59177136095881        1.25450945033161
C           -0.66379401436045        1.66684820249800        0.06068107822590
C           -1.38075815388175        2.85247722034983       -0.24069625256695
C           -2.65246884053440        2.52651197101968       -0.64710657457903
C           -2.82193178857276        1.13605438387826       -0.50911439615899
N           -4.02154583874941        0.47800746143876       -0.76532664893945
H           -3.92214004215213       -0.45351690470233       -1.14542349672399
H           -4.66303588415335        1.03798449286050       -1.30961495464460
C           -1.60962608674529        0.56343421148807       -0.08861410431996
C           -1.53949238259640       -0.76916571741725        0.40962398802385
N           -2.69046000589565       -1.24765289432932        0.93849297154350
H           -3.48219532440232       -0.63726530400590        1.04249246545698
H           -2.74433593436721       -2.19696835192919        1.26863288960494
H           -3.40071679895892        3.20681659476432       -1.01039940593090
H           -0.95842938094577        3.83990434033999       -0.28738519425226
H            3.53034642064706       -2.74962792220459       -1.68380032874293
H            1.18761143221806       -3.69622811646241       -0.76425036247941
