34
 energy: -63.362003367499 gnorm: 0.000635373342 xtb: 6.6.1 (8d0f1dd)
N           -3.24958186232594       -4.17157799425192        0.58440854350547
C           -3.15694114235892       -3.03010825512383        0.47450859305495
C           -2.98800872810224       -1.65448041013478        0.32019046574453
C           -3.94521947944078       -0.68357357149444        0.39037829185924
C           -3.33214118508377        0.58588550103496        0.15244892900132
C           -4.09166662958376        1.76036250439384        0.20614129966119
N           -4.81495738255428        2.64945532421030        0.28759007635779
C           -1.95981991976757        0.41980612854119       -0.05365577802622
C           -1.69846009802931       -1.02713272457069        0.01281833221267
C           -0.64821362713786       -1.82836778871183       -0.26199445598211
C            0.74389360250296       -1.68575670856508       -0.61425258001271
N            1.23925590744429       -2.81501563449026       -1.19367434670470
H            0.59159162654788       -3.53269664062530       -1.47521912453912
H            2.11129078298834       -2.75970288907620       -1.69433419073550
C            1.63153922880248       -0.67642277000411       -0.28310920628854
C            1.41592369660243        0.77061215691095       -0.04665518006011
C            0.31910226115139        1.60765130820866       -0.17739393928714
C           -1.06902026679154        1.49422671729020       -0.25160714556212
C           -1.65423463583942        2.76593702407966       -0.48262021882805
N           -1.99828327234672        3.83430601082377       -0.72431314899816
H            0.61392046886188        2.65385766746738       -0.21814197843869
C            2.69794647642477        1.34440582549015        0.14240946453323
C            3.67733293262603        0.32299812280806        0.06418014108866
C            5.04752844513629        0.49329517929194        0.26001273628179
N            6.17803404434324        0.62106405501273        0.42941533177983
C            3.04189868848544       -0.89354409305855       -0.21371727137749
N            3.71666682992649       -2.08271859533401       -0.34366652512751
H            3.24809136977322       -2.90700946855473        0.00411865855565
H            4.68895190294858       -2.02749492153902       -0.07029567713892
N            3.00593315534855        2.63491377187122        0.38252570182603
H            2.29661116890994        3.32840056209975        0.53341308419156
H            3.96551082923868        2.88738713105662        0.53890360112079
H           -0.90813785794344       -2.88556749001514       -0.21156744383693
H           -4.99127195985906       -0.82342905694249        0.59417928997056
