25
 energy: -49.065098846597 gnorm: 0.000411625483 xtb: 6.6.1 (8d0f1dd)
N           -6.16862724586221       -0.79606629792291       -0.64389769326840
C           -5.04746974688453       -0.64282183048732       -0.45677289637536
C           -3.67383641420312       -0.46352499988095       -0.23287784073822
C           -2.77299239190797       -1.48612578152149        0.17499594331939
C           -1.50748074101266       -0.94691196231052        0.29141713221892
C           -0.39516566960296       -1.68988766652269        0.74086749209026
N            0.84043249639809       -1.52102211408292        0.45530736834855
C            1.72324725270378       -0.64047986607513        0.14881514372384
C            3.04004132755238       -0.90823242627082       -0.30028419610475
C            3.55414996716702       -2.15129660704333       -0.67826588289792
N            3.97562330821054       -3.16850266213937       -1.00208820735873
C            3.74362913721964        0.29999130826391       -0.16260047905880
N            2.96918343785692        1.30983173429726        0.21646118477287
C            1.72114343499770        0.85563860913335        0.33596058409869
C            0.64527530373217        1.73488200301468        0.27397821003624
C            1.03774386525513        3.10554859099568        0.24576608571763
N            1.29316257061805        4.22147580907101        0.24424140092063
C           -0.73773031786906        1.55964056555890        0.07086420443754
C           -1.60444292248916        0.49071854938578       -0.02475588821494
C           -2.97554619392417        0.72675558798834       -0.32204924065593
H           -3.39198533197512        1.68216481600460       -0.58226825429691
H           -1.23807226382213        2.51202908285972       -0.09074174548290
H            4.79650293048652        0.44801921058079       -0.32192467575609
H           -0.60695784406268       -2.60129990817533        1.29498874818856
H           -3.04147393988445       -2.51207891542444        0.34569582233652
