31
 energy: -49.801671958359 gnorm: 0.000830482687 xtb: 6.6.1 (8d0f1dd)
N           -4.15870735974144       -2.45216683127532       -0.45036144303193
C           -3.50013253456117       -1.51586043216147       -0.30949144684457
C           -2.76313328390345       -0.35405376826101       -0.12315696952220
C           -3.35062627560795        0.91603120587443        0.17384463692603
C           -2.32717879000185        1.84074708515265        0.30242460471006
C           -1.08012461440575        1.21230930720797        0.10609709812305
C           -1.36324323490190       -0.21971789525700       -0.14823815227717
C           -0.55589378693517       -1.32129184043478       -0.37951268463157
C            0.80671164954665       -1.56321267120444       -0.30417135559543
C            1.94692848622139       -0.82947219026423       -0.02935338925722
C            3.19052261602589       -1.50968439870996        0.13218644374742
C            4.20111515254243       -0.57262743055966        0.30819220083136
C            3.64558707628599        0.69888334249606        0.23514958274651
C            2.25764328721853        0.61461949453693        0.05144476143106
C            1.46017058340172        1.76556146844160       -0.06145422649334
N            2.14436140668152        2.94831667144727       -0.19150125035889
H            3.09561755003890        2.92829009595611       -0.50915273012078
H            1.62312987715246        3.78749156626220       -0.37611599665887
C            0.06978329546415        1.96680584616672        0.06991713599938
H           -0.16081461867488        3.02707246136156        0.16339953393730
H            4.21947980900675        1.59564103685467        0.38322025971092
H            5.23962438286061       -0.79615091933319        0.47520740241599
N            3.39685261571320       -2.87455437651882        0.08276949733740
H            2.62831636916850       -3.45873197923469        0.37436855871108
H            4.28384150672416       -3.16938554601770        0.46094107070973
H            1.03094994111417       -2.61227487447092       -0.47428854146537
H           -1.13936701575836       -2.21158045976780       -0.59957084105804
H           -2.46043544390162        2.88653045917092        0.51120881811390
N           -4.67990078694693        1.13300344777837        0.26060358445336
H           -5.02376626589167        2.01664696633826        0.59001835317551
H           -5.30641969243265        0.34728084162260        0.23773626763467
