34
 energy: -63.364552732179 gnorm: 0.000665271252 xtb: 6.6.1 (8d0f1dd)
N            2.81551298303220        4.41348176606043       -0.10739555262390
C            2.75538701665563        3.27369693710153        0.03323681521293
C            2.63659995835187        1.88861145272828        0.16064092553400
C            3.53082269406889        1.02327489049485        0.74388836979500
C            3.00643567629292       -0.29526329396891        0.66373988331615
C            3.65974452602408       -1.41287683336974        1.19672079810294
N            4.20845741283936       -2.28780470859987        1.69956691567930
C            1.73962630524669       -0.26157032793350        0.06988056644815
C            1.44925485756464        1.15052278354696       -0.22716441459899
C            0.40768840654364        1.80784220746799       -0.80541058229131
C           -0.98642685708617        1.54547245419239       -0.94453394561372
N           -1.67715656312485        2.54863566056381       -1.52789505896008
H           -2.66432289704712        2.44512282487236       -1.69838848959912
H           -1.19936689009004        3.35667508671338       -1.88871160441190
C           -1.72561703327182        0.49437575307490       -0.38684420730201
C           -1.41051216789114       -0.92740064633176       -0.23832540872409
C           -2.56309386288872       -1.55899150872874        0.19656776925458
C           -3.57865013495789       -0.59904143198331        0.40280850866361
C           -4.85381983682371       -0.83042936909170        0.92139950033962
N           -5.91076867994498       -0.98049775068219        1.34827166669785
C           -3.08971007311075        0.64768999110188        0.00363288387617
N           -3.82711438116199        1.82159321120437        0.02820796170857
H           -3.32203510808742        2.64365613802974        0.33248903134795
H           -4.70367442784520        1.71372644777074        0.52349100486566
H           -2.67240564304905       -2.60101271815432        0.43570714237749
C           -0.27284939275437       -1.70139541129265       -0.63295457656527
N           -0.56689704014831       -2.91223702994798       -1.15428619797265
H            0.16016630540538       -3.59302148153421       -1.30742813815666
H           -1.52651041780724       -3.18662820758825       -1.27014177266428
C            1.08688079811558       -1.42003922267507       -0.40822052998371
C            1.96166203419247       -2.49925581053311       -0.67921093851355
N            2.62857471861728       -3.38030106456534       -0.99478550358895
H            0.65391900308408        2.83163181270781       -1.08186658335756
H            4.47296068635600        1.28281997524905        1.19123153490854
