28
 energy: -45.850655985457 gnorm: 0.000858065967 xtb: 6.6.1 (8d0f1dd)
N           -4.73986655198180        0.00007893181221        0.66058756909019
C           -3.43860496303301       -0.00006857380785        0.31740362142201
C           -2.65677425183343       -1.15272554104736        0.10552679392968
C           -1.37537046033291       -0.76532586193508       -0.23995131172089
N           -0.41248907666265       -1.60391433385763       -0.51323463490316
C            0.89026131381841       -1.59642418604117       -0.46108133706595
N            1.49717371038978       -2.63766340926478       -1.09142993388062
H            2.46817832700611       -2.81137536975542       -0.90208121632346
H            0.92279307868301       -3.38861256178625       -1.43505044677227
C            1.73789472929129       -0.72017788204865        0.28549923880606
C            2.87645239485947       -1.12794848975208        0.99175187166156
C            3.53677400456666        0.00010995933496        1.46530905870746
C            2.87652961217736        1.12789841736930        0.99097555892914
C            1.73795429899873        0.71973433260074        0.28499193744368
C            0.89034802376298        1.59547937182999       -0.46222310580134
N           -0.41238455752729        1.60294002929414       -0.51439374975262
C           -1.37532535936199        0.76463480931097       -0.24050919934834
C           -2.65665662364709        1.15238605578588        0.10485064932617
H           -2.99772041263024        2.16542751097021        0.19867854961849
N            1.49725450216575        2.63637288773212       -1.09310787859596
H            0.92305911383545        3.38709742478550       -1.43738827008791
H            2.46865510456822        2.81073934022349       -0.90272937215065
H            3.15356157277591        2.14860495212814        1.19282044773555
H            4.42834305488526        0.00028242619074        2.06695948582899
H            3.15335427207212       -2.14853764600329        1.19439019193858
H           -2.99795086761456       -2.16567640844017        0.19986274399970
H           -5.21233059739556        0.86542695999794        0.84977378982685
H           -5.21238784223596       -0.86513211812566        0.85024262233839
