27
 energy: -46.928011128396 gnorm: 0.000983539647 xtb: 6.6.1 (8d0f1dd)
N           -5.41613795973555       -0.03853847586505       -0.91687214272060
C           -4.30850093911694       -0.02201756025308       -0.61074472360096
C           -2.96325761930101       -0.00494641042160       -0.23084751680322
C           -2.16189261602460       -1.14459037446576        0.01542190501684
C           -0.88200028602661       -0.72231535825887        0.31797243070468
C            0.17003470331249       -1.63319002803082        0.69627858651249
N            1.36519501994356       -1.66544956899237        0.20411781707816
C            2.22449831688801       -0.81935273726566       -0.29388042155357
C            3.35054045727440       -1.14381961851932       -1.04102015345495
C            4.15488945415741       -0.00124783642991       -1.04080688889408
N            3.62894371162528        1.03257863020605       -0.38989478267392
C            2.40081275225383        0.64622631183613        0.01960454114090
C            1.53476409455045        1.59198018969139        0.49418082852568
C            0.13117395440136        1.65911171188942        0.66509609476576
N           -0.30822306292057        2.85441977068185        1.12506127558793
H           -1.29332254661052        3.02762701116784        1.21647119491666
H            0.33151906089701        3.62014862524667        1.24538604416099
C           -0.87139246697988        0.72725794459036        0.31027006048962
C           -2.19020762309535        1.12644907441199       -0.00163669196949
H           -2.53649853188281        2.13327263027471       -0.15223319892552
H            2.03011940927508        2.55064144262945        0.62377663088656
H            5.12568956543953        0.09645886055865       -1.49674066183741
H            3.58408667137275       -2.09800662781699       -1.46777736974419
N           -0.17367879167240       -2.64993448864301        1.51761384378868
H           -1.13386452656229       -2.77558442300931        1.78366435563562
H            0.48824477767890       -3.38938809554593        1.68123069779171
H           -2.49532262314153       -2.16237867116696       -0.07577950272449
