32
 energy: -54.324765824725 gnorm: 0.000684179213 xtb: 6.6.1 (8d0f1dd)
N           -1.28873724956828       -3.86808100525441       -1.17008610111798
C           -0.83892126821251       -2.88108911501550       -0.78500540001641
C           -0.26070983185680       -1.66804556563691       -0.34802452450535
C            1.14994378416704       -1.66642532830857       -0.32068732306482
N            1.76940976064412       -2.75847821576229       -0.83194875966152
H            1.23668532132354       -3.56419752805221       -1.11586162596594
H            2.76609309899609       -2.83976499120002       -0.73420924794228
C            2.00359994618460       -0.72646831589879        0.31068295552795
C            3.19433553935392       -1.12931839240628        0.93836623815639
C            3.88385169680965       -0.00563907474712        1.37263053304876
C            3.19758670734781        1.12018534192074        0.93872383775669
C            2.00567222653779        0.72101722144747        0.31090877416568
C            1.15465964342553        1.66362112632336       -0.32014560872178
N            1.77720212709679        2.75411230641306       -0.83103631846273
H            1.24675355185263        3.56155859294399       -1.11433828761627
H            2.77409287722894        2.83244934095443       -0.73355480037418
C           -0.25601127145433        1.66927470873788       -0.34747345926418
C           -0.83067301773093        2.88437161787978       -0.78352260193970
N           -1.27736972490311        3.87329120944638       -1.16701942072285
C           -1.21518325350382        0.75003568464277        0.12372640314072
C           -2.49036518010821        1.14635047408056        0.48604009379986
C           -3.27386887152420        0.00457610928649        0.75039387430450
C           -2.49350683024979       -1.13920408150421        0.48552414961081
C           -1.21724480908579       -0.74624260719899        0.12346304431439
H           -2.83306354103632       -2.15341459136706        0.57940492910846
N           -4.54037291082089        0.00614506148970        1.19395837844450
H           -5.03362246901553       -0.85926323730310        1.32220074053345
H           -5.03125465094419        0.87278286233208        1.32292971164725
H           -2.82721215631171        2.16143517451861        0.58030325601147
H            3.48433449569706        2.13614310938587        1.14796972572320
H            4.79408674218859       -0.00706312312075        1.94420398683833
H            3.47813137167346       -2.14617767542734        1.14726033954366
