29
 energy: -55.164496627434 gnorm: 0.000813335300 xtb: 6.6.1 (8d0f1dd)
N            4.79840911535997        1.52498782727572       -1.05728429547094
C            3.98094647720835        0.76842792684562       -0.77455817536318
C            2.99256473980717       -0.15567695108602       -0.43889307179710
C            3.11295451215416       -1.56098063166551       -0.40811871322415
N            2.01601400634361       -2.17786186174980       -0.00543787749164
C            1.07492584351854       -1.23146887282647        0.20888438374868
C            1.70715971442028        0.12806932199915        0.06255297003354
N            1.30458007982590        1.27971148169502        0.48477679777312
C            0.19140819731712        1.85971683759720        0.82682352578517
N            0.28823932563875        2.85798851261834        1.72526132578375
H            1.20080450741403        3.13908627303628        2.04384210637836
H           -0.49819199485632        3.46230346367492        1.88598211622612
C           -1.07771443384719        1.63646198073550        0.21004341303248
C           -1.97519342069900        2.64474578746032       -0.09792160281036
N           -3.11772238390031        2.17502480264191       -0.63349023991837
C           -3.02720371248480        0.85654238961390       -0.62387924723969
N           -4.07762792069650        0.08351530178026       -1.08863884434299
H           -4.79077347457607        0.67788913750496       -1.49388258224280
H           -3.80979463175662       -0.66287639761982       -1.71831729425821
C           -1.76209333228756        0.39162983113581       -0.11115678966889
C           -1.50855896353713       -0.94866078784058        0.19776744301695
N           -2.58145670453140       -1.76664097502298        0.25372747670442
H           -2.46693554994474       -2.74552152937067        0.45970421182741
H           -3.50598587323637       -1.36314075396327        0.23816072589831
C           -0.23797441964874       -1.62764410862172        0.34895455260876
C           -0.34187134162279       -3.03917873821132        0.48770565745420
N           -0.48673241156411       -4.16675415057714        0.64753453081070
H           -1.82190037085036        3.70567952426640       -0.01849868301186
H            3.99040701563121       -2.12643752572434       -0.66843778074142
