32
 energy: -59.152125618846 gnorm: 0.000909415542 xtb: 6.6.1 (8d0f1dd)
N           -6.25731943395717       -0.21464949174669       -1.42066292804624
C           -5.19323939086781       -0.15130933678023       -0.99131039142748
C           -3.90293636976799       -0.07194526731514       -0.45820237532949
C           -3.12925616514723       -1.16191322599536       -0.00473112011756
C           -1.89701903059908       -0.68193176844138        0.40514950390472
C           -0.88834928074698       -1.51467051551070        0.99881477139864
N            0.36959191865396       -1.53585509875333        0.68208061950507
C            1.26659133125534       -0.72919925283217        0.19811207138958
C            1.38362124459372        0.74605235870079        0.36759462561089
C            0.44661413669503        1.70176538199547        0.67665774081507
C           -0.96410868461591        1.74292210146997        0.65979927973650
N           -1.48463950933539        2.95377149589574        0.96795583999850
H           -2.47735734471828        3.10045017276471        0.92530385620930
H           -0.88518265393960        3.74855986376649        1.10871752611907
C           -1.90186427541048        0.75855087342913        0.25492051027062
C           -3.17238807912771        1.09557668761796       -0.25272011768893
H           -3.51089255826666        2.07573227535751       -0.53716754355105
H            0.88932647928285        2.68527459002466        0.82260656809588
C            2.72545755724512        1.07206827467037        0.04449657213155
C            3.29802520772270        2.33832417296375        0.10989637154679
N            3.78292405430685        3.38151959629325        0.16651541297268
C            3.37408463501261       -0.08210941589358       -0.44974868166526
C            2.47220091617253       -1.17933165124531       -0.36525376067191
C            2.79347671470613       -2.48739053283016       -0.72142221005723
N            3.10480545420153       -3.55078940988158       -1.03096371853392
N            4.62473822674463       -0.14377764391299       -0.91605440971235
H            5.20819332439640        0.67556189988960       -0.91327098164689
H            4.98938768517370       -1.01291630652681       -1.26757090154637
N           -1.30135151237289       -2.46794970258391        1.85624164513039
H           -0.64428768580494       -3.16781842069145        2.15898528912524
H           -2.28373120312759       -2.61629286990389        2.00214331416159
H           -3.43504706696081       -2.19174195369810       -0.03759190232852
