39
 energy: -74.773074176906 gnorm: 0.000871232172 xtb: 6.6.1 (8d0f1dd)
N            6.07874950463736       -0.01526408137095       -1.55185442325583
C            5.03771746618449       -0.01440133575836       -1.06100182453271
C            3.76796416099835       -0.01299476949439       -0.48964870037513
C            3.00128000831963       -1.15620027957101       -0.18405502674033
N            3.47018800255050       -2.44453437910159       -0.34489118750782
H            2.78149273419621       -3.14029092009232       -0.59357446316789
H            4.30712174854405       -2.49963151072725       -0.90924347147371
C            1.72941868836501       -0.74357057721031        0.26499009349579
C            1.74027054215179        0.72519344597486        0.28415822592295
C            0.81405345610354        1.64395490348758        0.82002994603984
N            1.33753690739571        2.74139921403747        1.41172152563828
H            0.73868671999399        3.48016671382662        1.74263938708123
H            2.32400361333802        2.78280975928141        1.60120266623832
C           -0.59965355193753        1.65031316484985        0.64243544331031
C           -1.23456809093840        2.83852574157838        1.07108783443516
N           -1.71308987662567        3.78422730906524        1.51746826705458
C           -1.45535142840336        0.74726617208919        0.00109078269138
C           -2.66668091150923        1.15699003566364       -0.58762005755939
C           -3.07185061814963        2.45018815725973       -0.92291025831856
N           -3.46397088474399        3.46743404731461       -1.28880629366192
C           -3.41881288614780        0.01073704409606       -0.95289522467900
C           -2.69510389856258       -1.13622698684485       -0.52883848781441
C           -3.13816696831162       -2.43260989272230       -0.79662189245422
N           -3.56397932025601       -3.45549433963385       -1.10517097431926
C           -1.47077545114721       -0.73002017500618        0.03125438826708
C           -0.61840175512083       -1.63082710464305        0.68379446692125
C           -1.27003220900081       -2.78504906264995        1.17449211757317
N           -1.75931648781993       -3.69706046272911        1.67604751469752
C            0.79982234590286       -1.65630818090363        0.80776633534839
N            1.31976549411377       -2.77387039534044        1.36445763137543
H            0.71524202434726       -3.50181880537026        1.70879064514945
H            2.31007236811031       -2.83405771075051        1.52702742055641
N           -4.58607640806951        0.00828724906971       -1.59598060392686
H           -5.04126496217524       -0.86264559675517       -1.81458624411295
H           -5.01692752801724        0.87831308436717       -1.86245964568528
C            3.01997530451017        1.13195326132943       -0.15001555754639
N            3.50673174280692        2.41734645396261       -0.27722629908833
H            2.82696283015069        3.12997095784292       -0.50208121404738
H            4.34064670401404        2.47623346517357       -0.84612316253413
