28
 energy: -45.837787292154 gnorm: 0.000715222558 xtb: 6.6.1 (8d0f1dd)
N           -0.18483696531219       -3.15401323842910        0.73355603821937
C            0.04521757323856       -1.85089215306676        0.39928516902374
C            1.42836287198493       -1.50788173050755        0.43058797533864
C            2.14791973521679       -0.37978155023094        0.18954313677373
N            3.48810031626196       -0.50717545038302       -0.05310616588384
C            3.89557139679739        0.66358862331212       -0.50243949740890
C            2.89506904789613        1.65295804075849       -0.51578099152105
C            1.75455005399204        1.05224316549301       -0.01467163491928
N            0.67167544325149        1.67949470370035        0.38783767968349
C           -0.57054822185093        1.38438539948233        0.57817403784225
N           -1.27989812163717        2.32001768115218        1.27406970043531
H           -0.75747381995727        3.03172883566207        1.75632564691876
H           -2.20621218004666        2.09528522966049        1.59006654172032
C           -1.34231361648115        0.32069394606577       -0.00887439425474
C           -2.64026263551941        0.49372857376075       -0.47846136014548
C           -3.16804069635141       -0.77324151886510       -0.83608094689480
C           -2.24583114632122       -1.73050567547077       -0.51832972165763
C           -1.05743690958738       -1.10561153463004       -0.02695521997798
H           -2.36420388836401       -2.77938994705244       -0.72504056011084
H           -4.14036433156016       -0.93508276859771       -1.26515300696583
N           -3.35065863080570        1.68150343211529       -0.57660444956713
H           -4.09038716978615        1.65366811695468       -1.26343908430487
H           -2.77588445840623        2.50842134070716       -0.65508693162422
H            3.00954709036324        2.67812050654531       -0.80638582110023
H            4.92097348145249        0.79409269119801       -0.80690175144238
H            2.07634538076664       -2.37462239949823        0.53541273528785
H           -1.10912001040475       -3.53171365813254        0.62729474212911
H            0.58508821047067       -3.79810546790430        0.78067822740673
