28
 energy: -51.439413009029 gnorm: 0.000695086931 xtb: 6.6.1 (8d0f1dd)
N            0.24554408127476        4.30367568364106       -0.34434545634439
C            0.15008837916340        3.16315420059658       -0.27893432272853
C            0.13319179728770        1.74241254114391       -0.21716523621151
C           -1.13552367912978        1.19107168875494       -0.22632107992770
N           -2.21642439946457        1.98140619296390       -0.12086017908549
C           -3.23876851204102        1.21547416988067        0.23849620190119
C           -2.90260262203810       -0.14183970190352        0.37577423104933
C           -3.75115264618949       -1.19715285602491        0.70453820797648
N           -4.44783191333389       -2.06908838613717        0.98016677648573
C           -1.55197294504556       -0.24341214555521       -0.04009341807159
N           -0.94742203894994       -1.33920337359476       -0.33184939652327
C            0.22173100265643       -1.79023150582992       -0.69784791860265
N            0.18918822185530       -2.83726181107343       -1.54955671655002
H            1.03218914248889       -3.32360188490567       -1.79255485253998
H           -0.70138364183837       -3.21213286788369       -1.82873243374258
C            1.47949601819133       -1.40222975858766       -0.15681724590908
C            2.54273108679678       -2.26482819872864        0.03197989981880
C            3.66075902136567       -1.55994613987961        0.51424299015177
C            3.34114407870681       -0.22195290690073        0.58438422371920
N            4.18884584478163        0.78198035386681        0.94482424426163
H            5.04910646980196        0.50735985266872        1.38852490157019
H            3.80806625614093        1.66312313722397        1.24653816209391
C            1.95236870686740       -0.05043765834898        0.17610246145439
C            1.42229855645506        1.19925274457582        0.02822467748967
H            2.14541713125541        1.99805048838801        0.17694148535118
H            4.61043464755227       -1.99483127514790        0.76261063292263
H            2.51819444900383       -3.33065485681244       -0.10956007086993
H           -4.21210645831467        1.64709416791003        0.39225473986029
