26
 energy: -47.206704097022 gnorm: 0.000885684420 xtb: 6.6.1 (8d0f1dd)
N            5.73970817938625        0.45194329730141        0.48760497482115
C            4.60535069031384        0.44789328998164        0.29594503087661
C            3.22861366984284        0.38384758102789        0.08227478325061
C            2.34208645173926        1.43722915321053       -0.10031951032404
C            1.03611610916272        0.93153561721227       -0.25671711506373
C           -0.03320412243455        1.76322005196843       -0.59757221913948
N           -1.31018309956453        1.63698347952481       -0.40020290735293
C           -2.19516405299924        0.74135461346503       -0.15255850794698
N           -3.37509673496436        1.06293867325380        0.37748313083478
C           -4.02086815201548       -0.08118293489880        0.65329188123863
N           -5.25339070612918       -0.05766851076027        1.17214497963445
H           -5.75070410938604       -0.90907208482011        1.35963175962459
H           -5.70839452147128        0.83107635939670        1.28535537777632
C           -3.24839602528567       -1.23278876391214        0.36396321197352
C           -2.08054063119710       -0.78787221597175       -0.22175082236030
N           -1.08021998789643       -1.54877545406953       -0.56836091741979
C            0.20137418994451       -1.48896384255699       -0.66458296735570
C            1.13466286254228       -0.52552607543764       -0.22984912635006
C            2.49562132717993       -0.83583637642748       -0.04198839893487
N            3.06538043329672       -2.06334441843829        0.00007945132311
H            4.02779653649249       -2.13504040839843        0.28275163625081
H            2.49134765772235       -2.88394087436976        0.06941202635262
H            0.63168952070241       -2.39385286597765       -1.09513930358077
H           -3.53516683484667       -2.25185432655916        0.53039444774701
H            0.23747304681100        2.74671066149145       -0.97744664876340
H            2.60222765985403        2.47955590476229       -0.08574299261400
