29
 energy: -51.152147968847 gnorm: 0.000824091110 xtb: 6.6.1 (8d0f1dd)
N           -4.00152829855827       -1.42472773610246       -1.33236773605632
C           -3.38242995531060       -0.57284783344142       -0.87099420047733
C           -2.64512361563326        0.51512309554915       -0.39543587898130
C           -3.14333339674993        1.87058421886947       -0.40308143642634
C           -2.17746645914891        2.68386886858192        0.08311818063022
C           -0.98398292195740        1.91508568736981        0.33348844976054
C            0.15946750376902        2.54899976365332        0.73023513889628
C            1.51972396573156        2.18276034724361        0.70209816478540
C            2.16337428390780        1.05330212588882        0.27898322206352
C            1.80407736716059       -0.31791027472917       -0.01644326652659
C            2.96178255175966       -0.87828945847645       -0.55158937275571
N            3.99949828582323        0.03090464137795       -0.62246026633065
C            3.56757128371257        1.12860436215305       -0.09207369265548
H            4.17970931757468        2.00997441004757       -0.04000615942342
N            3.19477351788856       -2.14945453028383       -0.99434041543194
H            4.04500594702236       -2.23865692237124       -1.52943625348191
H            2.40573156648886       -2.66920212870530       -1.34715128534702
C            0.66615646478565       -1.09139129811411        0.39666721477666
N            0.95364139580098       -2.37769640949243        0.72611975905805
H            0.21858635065316       -2.97242458359456        1.07435782268290
H            1.90886106928091       -2.64912113467904        0.87785629443933
C           -0.67390473164466       -0.70871731386543        0.41533702610233
C           -1.56792924982328       -1.71377784658146        0.84759237918996
N           -2.23550877357459       -2.53903424053921        1.29164732171985
C           -1.33436191242031        0.50818199702390        0.05270137837958
H            2.19117366186105        3.00269338289785        0.93735966333428
H            0.00656866157448        3.59218177452179        0.99027176676320
H           -2.22946663939981        3.75098162096389        0.19276727585059
H           -4.12454477157449        2.14590589283503       -0.74365460723884
