25
 energy: -43.490724546500 gnorm: 0.000654086967 xtb: 6.6.1 (8d0f1dd)
N           -3.91444765863989       -2.36007253630960       -0.60606154332845
C           -3.18533458672440       -1.48569093207718       -0.43465263334646
C           -2.34212779063724       -0.40457437137086       -0.21352021987890
C           -2.76875521410495        0.88551823550174        0.24928383432850
N           -1.75306483760035        1.73812838376611        0.38963398749969
C           -0.64120272770196        1.10349575068553       -0.01607851324794
N            0.42353227053532        1.78250184722020       -0.27030598767480
C            1.68383841477452        1.62535985660697       -0.51347532728437
C            2.56822803870870        0.62541500686171       -0.11103566099821
C            3.94547550914191        0.83662951865475        0.01394603757720
C            4.56348313388660       -0.36212317239061        0.37016740132809
C            3.60125639937597       -1.35759864435314        0.41607691689998
C            2.33250435852074       -0.80673836255380        0.13737203389938
C            1.23403111279863       -1.63633254031252       -0.06159917831285
C           -0.11694065732826       -1.45539129115384       -0.31837668129995
C           -0.94517197336164       -0.34085729773022       -0.30145307641224
H           -0.67457750069276       -2.38319218863476       -0.41486024110603
H            1.50077163828268       -2.68567124909991        0.03111466143677
H            3.78059700916389       -2.39743498817031        0.62108512414566
H            5.61568596643955       -0.49532509005465        0.54487434300156
H            4.43340098779929        1.78570302611216       -0.11256338450214
H            2.13126508801378        2.48990613444551       -1.00324938031915
N           -4.02544138495520        1.22987444642794        0.53233878085459
H           -4.78124467633284        0.58772225045758        0.36900080397640
H           -4.20920413286287        2.16005790226367        0.86575743525679
