25
 energy: -47.481273105989 gnorm: 0.000700379776 xtb: 6.6.1 (8d0f1dd)
N            4.83641723523253        1.59596657991950        0.39010629514039
C            4.01666397874061        0.79648797740889        0.29666230674570
C            3.02291282282829       -0.17878500284948        0.20335077724105
C            3.14879403665500       -1.54865208132936        0.46895827690597
N            2.01567309453166       -2.22173594989779        0.30863155676200
C            1.08416623217075       -1.38608088428697       -0.14765350933875
N           -0.15510111509700       -1.69463429245728       -0.19999223862754
C           -1.36103749104415       -1.19807642793427       -0.30932011180617
N           -2.30034284415472       -2.11144722819005       -0.67295777209930
H           -3.20724630414579       -1.79104949708010       -0.96829314083850
H           -1.97015704777545       -3.00548708086208       -0.99734922580012
C           -1.80681967754337        0.09552850743989        0.06563079611928
C           -1.20150516648945        1.39242860860390       -0.20458046059657
C           -2.24042523172023        2.32009890991003        0.01995158256852
N           -3.36049974205772        1.74495810860694        0.42440182961009
C           -3.13303514266047        0.41314234123055        0.43538516529985
N           -4.14668731120676       -0.44397988977164        0.75536378565274
H           -3.88436253989080       -1.33000353868404        1.15932802448890
H           -4.93129747834832        0.01415797480231        1.19475190288967
H           -2.17603127524112        3.38794669554707       -0.07730470084013
C            0.04127704692291        1.73246803259900       -0.74629575695470
N            1.16874201159049        1.12237436082267       -0.59635077442885
C            1.71513895898827        0.00383094655529       -0.31672267208724
H            0.12072864427450        2.69831812375701       -1.23693782793204
H            4.04656373814054       -2.05967074316423        0.76879619572510
