29
 energy: -46.355719827806 gnorm: 0.000803164107 xtb: 6.6.1 (8d0f1dd)
N           -4.56963116803427       -2.00520476918405       -0.65863339388603
C           -3.89024370248380       -1.10749207219913       -0.41622009553595
C           -3.07393588877999       -0.01769707961611       -0.12413644519855
C           -3.54510633631051        1.26661199094745        0.28280924530636
C           -2.47465311299809        2.07887007068860        0.49282488026648
C           -1.26156983993529        1.36194764772811        0.21403336955748
C           -1.67150817601791       -0.01305347260005       -0.14460362152509
C           -0.95299722239301       -1.17475699222576       -0.41335621923475
C            0.37678136655311       -1.52891149819886       -0.31385759079855
C            1.57738690293178       -0.88197826603072       -0.03476417769593
C            2.76038759914666       -1.64452898259518        0.10822584466122
C            3.85906635330960       -0.77945521046158        0.19158619403034
C            3.41061286518842        0.52061548617159        0.07995792039353
C            2.00117019383643        0.53957406949831       -0.02185301164017
C            1.29476300111878        1.73681039560168       -0.08708341350230
N            2.02222498804112        2.87401356724652       -0.29557222798203
H            1.55074925423086        3.75566753420726       -0.39007089263996
H            2.96155184868211        2.80914284144725       -0.64034145419524
C           -0.07788189356215        2.02974489897019        0.18854818058146
H           -0.20457409930504        3.08926715411719        0.40719637293815
H            4.05529539378215        1.37676762057341        0.16026279999284
H            4.88169494192749       -1.08599632800456        0.32086823847721
N            2.86323148521672       -3.01877483527550        0.11302705275933
H            3.74392308870451       -3.37252415513111        0.45197764208183
H            2.06521873905904       -3.53413104028377        0.44938586610443
H            0.52517720006533       -2.59016533266860       -0.48964280898161
H           -1.60643502608360       -2.00146761684961       -0.67788920347052
H           -2.50581538122625        3.10971891041497        0.79477666125351
H           -4.58381811256303        1.52138223951377        0.39626765718310
