25
 energy: -42.680859572169 gnorm: 0.000991466731 xtb: 6.6.1 (8d0f1dd)
N            4.90734847793799        0.26419374069540        0.30265934976519
C            3.58392202899537        0.20125117989801        0.09907660544598
N            3.00016952144013       -0.93543831226968       -0.29086523201770
C            1.67589479670503       -0.69446611231925       -0.35844324317173
C            1.42980244208271        0.77905688206406       -0.13275724534054
N            0.38612532532168        1.54075157319536       -0.37076286282915
C           -0.88872159866196        1.41838725171815       -0.48403888053604
C           -1.77630197259219        0.41198869704963       -0.07585125883948
C           -1.59184022234907       -1.03090619587520        0.07022356317613
C           -2.91622912982593       -1.50969436043326        0.32138285420065
N           -3.81598554122428       -0.55731505191393        0.35733520815076
C           -3.15546232216779        0.60857349684943        0.09916066153310
N           -3.86283969372226        1.76517641820823        0.02532298390162
H           -3.37517340627934        2.63885334142060        0.11602643864006
H           -4.80193850545178        1.72338841351048        0.38379211209106
H           -3.19356536685543       -2.53518181852598        0.48763981141017
C           -0.55337460355208       -1.91071051893055       -0.13288750179634
C            0.82145552072546       -1.77321871365806       -0.35127380902327
H            1.36167209426788       -2.71194644953914       -0.41150739386691
H           -0.86910322267792       -2.94850445874432       -0.07053329848447
H           -1.35867793023023        2.30770554481391       -0.90787464963766
C            2.65894365725777        1.26708792017924        0.25962632039429
H            2.89302508272178        2.27432388533576        0.54079812986385
H            5.34052556429585        1.11410135373708        0.61247408652712
H            5.46907990733832       -0.53713733956610        0.07859090864336
