30
 energy: -54.884992096792 gnorm: 0.000988672466 xtb: 6.6.1 (8d0f1dd)
N           -5.57792880194177        0.08983303791645       -0.67916747564529
C           -4.46388344626179       -0.02892446861803       -0.41801008558496
C           -3.10424328162855       -0.12762058093437       -0.12305508618351
C           -2.41266871419970       -1.27341690383640        0.30605507255055
C           -1.06636350344715       -0.96269993320349        0.41400583474259
C           -0.08009680220309       -1.90556079491608        0.82750992970993
N            1.03702512151458       -2.11847040222159        0.18972041200130
C            1.91531051787312       -1.45455365541406       -0.47210320216335
N            2.81372917921325       -2.07278213643428       -1.25355689775274
C            3.78601788806776       -1.19126963849282       -1.46546495048258
C            3.57563642763279        0.05128635633024       -0.84923746064073
C            2.31417086278765       -0.00726891366166       -0.27483217098898
C            1.60072340995241        1.06094960799047        0.28301266067310
C            2.43199739228972        2.16194785603343        0.59460581316308
N            3.10675322067463        3.04622062323644        0.88714542937032
C            0.20067361112864        1.31244698104237        0.38720031956339
N           -0.12670546557930        2.58496755909934        0.71150003778636
H           -1.09140859860981        2.82335194435905        0.87286851671386
H            0.59193565619488        3.26280596313012        0.90419423937564
C           -0.89496947014115        0.45455908896149        0.11075990063984
C           -2.18777296483161        0.93838049750003       -0.20530399956893
N           -2.54798594929748        2.23854784814233       -0.54078578448681
H           -3.49227876289755        2.29310422851533       -0.90130135991740
H           -1.88971861805973        2.72408943084905       -1.13556252142636
H            4.22475046922082        0.90306557863441       -0.90334433695263
H            4.63016398450049       -1.46463335380231       -2.07465553512324
N           -0.38576751154207       -2.76676440520637        1.81504948466575
H           -1.30725220584359       -2.75934117235602        2.21573200039951
H            0.22746882169169       -3.54548593399344        1.99036580965616
H           -2.85408323955898       -2.24289701854926        0.44541612840574
