35
 energy: -61.496878929841 gnorm: 0.000663415010 xtb: 6.6.1 (8d0f1dd)
N           -4.29040076590056       -2.58742205060740        1.18256923501542
C           -3.78620017348686       -1.60539068012937        0.85084916456214
C           -3.23555253162558       -0.38733923686640        0.47573887941594
C           -3.92959223933204        0.86864323891902        0.54956051570349
C           -3.11003705743813        1.87000951480614        0.04360296191743
C           -1.85660994780744        1.32443147879294       -0.28197853253910
C           -1.98216209765976       -0.15627705851025       -0.09831091596999
N           -1.23326366582060       -1.10173966420386       -0.58536897048519
C            0.00825190692711       -1.28301754285820       -0.92450352333433
N            0.21950292970617       -2.33925598579017       -1.74783670644693
H           -0.57746789887471       -2.82712580728169       -2.11810585044646
H            1.14069686101777       -2.53320582362003       -2.09654347624641
C            1.16344575786113       -0.64210616600472       -0.38205461964726
C            2.33815928799714       -1.32643765225055       -0.08220059068528
C            3.31439002631432       -0.38271413983755        0.33736529501347
C            4.58865990268081       -0.68401027135339        0.80424060977273
N            5.63763747947687       -0.92612744535930        1.21499768122102
C            2.76404677523332        0.89979722593457        0.22370501309018
N            3.46582460665503        2.06100964800377        0.52295557018754
H            2.91829136938886        2.77812905559928        0.97988262457128
H            4.32965973697507        1.86855559527397        1.01455598781325
C            1.41426234250018        0.78917352324879       -0.21198336270341
C            0.63870521399434        1.90376356289755       -0.58354983510617
N            1.33907916694725        3.06026399091168       -0.81885539303280
H            0.84050035044334        3.84842199952651       -1.19484926618186
H            2.31742189000265        2.98449502027204       -1.04424719728489
C           -0.76282493091165        2.09129184247488       -0.60538165542376
H           -1.02753446375908        3.13563370746479       -0.76107214041209
N            2.57372346302851       -2.68744535044452       -0.16664979787202
H            3.37904555310794       -2.98895869608402        0.36461412009607
H            1.76310875265894       -3.27125434153298       -0.01644100396212
H           -3.36314166656841        2.91289808477593       -0.00686645579539
N           -5.17041456848386        1.00092177838935        1.04839835315439
H           -5.64442107674887        1.88556101521550        1.01727819682331
H           -5.66186386500170        0.18856466082277        1.37864172401960
