28
 energy: -52.230642433624 gnorm: 0.000770826762 xtb: 6.6.1 (8d0f1dd)
N           -3.52451708461783       -3.75336662093523        0.22047715188516
C           -3.11132338364253       -2.68442072279458        0.14139560178307
C           -2.59023467509486       -1.38924858497692        0.05552626687086
C           -3.28876082320488       -0.24451978904633       -0.16787433946792
C           -2.35904006246311        0.85465584885754       -0.17922622784648
C           -2.80125730467475        2.15411182026977       -0.46272721083379
N           -3.26185692769281        3.16189861086120       -0.76444273417972
C           -1.06566358880777        0.39235784017343        0.03151078670001
C           -1.15595759256680       -1.07086615049503        0.13218466799973
C           -0.28191147764150       -2.10999969120892        0.19499497734969
C            1.13021492489475       -2.24288301989491        0.09848958521595
C            2.14735534497598       -1.35326400049684       -0.02833588177387
C            2.29604855693200        0.10059051273330       -0.01136585435311
C            1.40034709349999        1.16015063265524        0.17727053661007
C            0.02947656838406        1.29480712892213        0.21254046545115
C           -0.33901888001564        2.63487990668094        0.50481818721111
N           -0.51949349981058        3.72454244142435        0.81661189868546
H            1.90811820435758        2.11202214618503        0.31384400162991
C            3.67784546287735        0.30927550846514       -0.14192451860620
N            4.37971357239086       -0.87776609184847       -0.24962803140162
C            3.51446881223562       -1.83358521083570       -0.17516667987501
H            3.80918681301974       -2.86573791838038       -0.22898679317672
N            4.37387877613022        1.45344567355390       -0.21158844013261
H            5.37552493749998        1.38883400641276       -0.25775571430986
H            3.94125517666909        2.34853508552090       -0.07337166774008
H            1.45109405997534       -3.27968933292715        0.09718089007947
H           -0.77557141035609       -3.07506141057337        0.27664112857361
H           -4.34892274165383       -0.14513792629947       -0.31190924854876
