33
 energy: -58.864845510328 gnorm: 0.000602812200 xtb: 6.6.1 (8d0f1dd)
N           -6.39762050222041        0.00077037931747       -1.14689204724680
C           -5.31064824223487        0.00018637083343       -0.77418312513124
C           -3.99362536620002        0.00021376888601       -0.30409298460572
C           -3.22132377599914       -1.13238757103840       -0.02257104455915
C           -1.93744545371370       -0.72692395548021        0.35996241448162
C           -1.93732895696545        0.72713292246884        0.35989232452641
C           -3.22115849715169        1.13274561649856       -0.02267068741433
H           -3.55638600709544        2.14147233063371       -0.18372267566649
C           -0.96243064516235        1.68926865772317        0.74223361203350
N           -1.45486767053130        2.85379343604841        1.22830345141006
H           -0.85252872896031        3.64932842488161        1.35191818088432
H           -2.44543852394736        2.97749064124599        1.33608311761606
C            0.42608409938331        1.67645352753871        0.56092685988505
C            1.36016743148685        0.73762049098336        0.17556452758331
C            1.36003590583657       -0.73781145653080        0.17540468005257
C            0.42584689707103       -1.67656276606005        0.56068912150806
C           -0.96264980581252       -1.68920638976769        0.74215665520136
N           -1.45519175390689       -2.85370680176076        1.22817513701627
H           -2.44576630481447       -2.97729729236926        1.33599575613222
H           -0.85294982979470       -3.64934225201231        1.35162237772124
H            0.86760124644766       -2.66352870126410        0.68461041142698
C            2.67790940121111       -1.14113104113719       -0.15459099051093
C            3.13396645473183       -2.45292052913098       -0.24440045277192
N            3.53137058815743       -3.53163992619409       -0.31469788164027
C            3.48127631874368       -0.00022074595310       -0.38337938682770
C            2.67809567490600        1.14078118136293       -0.15438874645894
C            3.13434802694961        2.45251480147270       -0.24414538872896
N            3.53188236370486        3.53125442680661       -0.31390495648493
N            4.77210788600664       -0.00029038546005       -0.73952781094708
H            5.26074568192606       -0.86870896613919       -0.87320880816480
H            5.26088336363270        0.86807634107081       -0.87304616223705
H            0.86797225948527        2.66333368629930        0.68505482782383
H           -3.55670122006971       -2.14107303827326       -0.18355490790656
