24
 energy: -44.540318512349 gnorm: 0.000836964120 xtb: 6.6.1 (8d0f1dd)
N           -0.19714501626414       -4.23825639699510        0.27421151443969
C           -0.22454010196796       -3.09303899525978        0.23933192147257
C           -0.30155972618592       -1.67156372013999        0.21623286111862
C           -1.59796913267346       -1.21897569432134       -0.08052495928710
C           -2.20851206924297        0.01363421651933       -0.21641955736892
C           -1.85445112275893        1.39344048799408        0.15902024483207
C           -0.65694868894968        1.88089913242265        0.67971226455378
N            0.52818587300951        1.45594242925140        0.40989735682623
C            1.23058633945045        0.42989080932771        0.11997335932436
C            2.59987966758844        0.50006085162650       -0.27730481447753
C            3.26866934507736        1.67388597816508       -0.63432766638496
N            3.81729045918200        2.63494219443623       -0.94164369790450
C            3.15554931505711       -0.77076457658917       -0.12577120351525
C            2.16821080865557       -1.68559074354131        0.25562913815770
C            0.94014872595198       -1.03465388565408        0.32966598691642
H            2.32581349891719       -2.73629324129773        0.41109923990580
H            4.19199687072648       -1.00644060304370       -0.28875449829477
H           -0.68784008020679        2.79427677967687        1.26802004386544
C           -3.04130949849919        2.11619603136453        0.01817731198113
N           -4.05550743312598        1.34681751551074       -0.40120715969943
C           -3.59189320009039        0.11557220666674       -0.52612234684058
H           -4.23681288641490       -0.68877229983893       -0.82929139530977
H           -3.18101391568792        3.16850613924595        0.18144794738840
H           -2.28353866784771       -2.04123688122679       -0.27399460430021
