32
 energy: -59.122628028273 gnorm: 0.000820858708 xtb: 6.6.1 (8d0f1dd)
N           -2.36267075887640       -4.37699994319447       -0.14520645340731
C           -2.33989090625939       -3.22794478468828       -0.17933778636761
C           -2.26552780083725       -1.83349199819260       -0.19085148448795
C           -3.20364043867358       -0.95643152008075       -0.65361661506509
C           -2.69110774307022        0.36965053562552       -0.44876975451947
C           -3.37459627307596        1.52978351653671       -0.83303398740041
N           -3.93926603803811        2.45631827273235       -1.20928877979111
C           -1.41885301075591        0.29939617634480        0.10535256483692
C           -1.08857490268140       -1.08160948779803        0.25622367372989
C            0.03397006021598       -1.77204419186835        0.66783281639389
C            1.40028829371626       -1.46617765779690        0.75050827668927
N            2.22070728225464       -2.51401073085715        1.17609196145265
H            3.04004713974100       -2.23502508149912        1.69550363058877
H            1.72820694918785       -3.28578437475977        1.60218951970278
C            2.05027604247916       -0.34408925100961        0.21591030628249
C            1.68909680097445        1.00392567221338        0.02171135563396
C            0.59195888315130        1.78943836922583        0.52059762888978
C           -0.71995113723737        1.49174808243920        0.58494867840971
C           -1.56294944783031        2.45985790750430        1.18105270662018
N           -2.21260982313668        3.24554968827037        1.70847385494878
H            0.87882689238078        2.77524814834822        0.87814865085319
C            2.82145741870523        1.61431808296483       -0.57113926012963
N            3.82434973783621        0.72766244413713       -0.83219759522932
C            3.41679294095452       -0.42574738032795       -0.35826695385164
N            4.15425656584518       -1.54015472833168       -0.46434471193969
H            4.94252379939533       -1.49107907067830       -1.09062823253696
H            3.69026531725439       -2.42715996961546       -0.32840338657641
N            2.97290941039869        2.90555382633024       -0.88946107177915
H            2.21136857952813        3.55377484785118       -0.80036400313955
H            3.82613122041076        3.19148572221297       -1.33569058088041
H           -0.16580159521038       -2.82773390110473        0.84522602626555
H           -4.16081415024132       -1.18846309243240       -1.08121963759263
