28
 energy: -50.658862069140 gnorm: 0.000565381723 xtb: 6.6.1 (8d0f1dd)
N           -5.62755933786437       -0.04866960556654       -0.51983303054155
C           -4.49011804138418       -0.02845339385179       -0.34245033313398
C           -3.11107227025342       -0.00823545899362       -0.15240818017382
C           -2.28617221980453       -1.15306071229433        0.03858010487815
N           -2.76607232647887       -2.41773101293808        0.09354871016653
H           -3.72276059154644       -2.57705955127198       -0.17260786775127
H           -2.13083374775053       -3.19343357700882        0.03773928301842
C           -0.94798899402599       -0.73917838946598        0.14287992662762
C            0.08769761646661       -1.62251487857284        0.45451791472473
N            1.35199399198478       -1.57591082301003        0.20647421905515
C            2.30086297277889       -0.71985042953395        0.01340090536522
N            3.48295443767493       -1.05796267407597       -0.48374092128525
C            4.27593349117274        0.01583479111261       -0.23069452614430
N            3.68719004093508        1.07857272519482        0.32421067723061
C            2.39188788621002        0.73086250522819        0.43838847600303
C            1.41352506729664        1.68500550415003        0.57554586961533
C            0.02502670804700        1.67562295237875        0.38129212629254
C           -0.93271444397118        0.73336213963134        0.08236772547181
C           -2.30222560762417        1.13235937109003       -0.11256884872139
N           -2.77255464664906        2.39877314509839       -0.21185705501417
H           -2.14160968916379        3.15382736201503       -0.41339193969546
H           -3.73532390712368        2.52024309626655       -0.47765413954029
H           -0.38324928671329        2.68024035192706        0.44882329026346
H            1.83183996056542        2.67209648394065        0.73998958632644
N            5.56974699294032        0.00208598893208       -0.55708602452298
H            5.95947970190174       -0.83378815888463       -0.95318476332507
H            6.15446705126379        0.76764675053085       -0.27552793760719
H           -0.21451088588423       -2.57346110822552        0.89559401581666
