27
 energy: -46.920843949158 gnorm: 0.000501642586 xtb: 6.6.1 (8d0f1dd)
N           -2.24878795103079       -3.40435229203640       -0.04851747824269
C           -1.64020554855829       -2.43198577733170       -0.02965032083820
C           -0.80662462998747       -1.28005897829932       -0.00532627104062
C            0.55947847665033       -1.60314099454075        0.01168339954120
C            1.72743635167505       -0.88603305642971        0.02174931086096
C            2.09548278888650        0.54810193892928        0.02979188985402
C            1.38153578450022        1.73158386903553        0.05786274333937
C            0.03946413897739        2.06964544293055        0.06297327262795
C           -1.16237359829654        1.36481776576151        0.03219340779169
C           -2.38807598696141        2.01864544231104        0.02599082548038
C           -3.38882106993026        1.02789461514760       -0.01616589661710
N           -2.86239792842666       -0.21409458619783       -0.03234290238060
C           -1.53456832042111       -0.08882510006777       -0.00388494201295
N           -4.71368671723871        1.19739070359306       -0.04082291059937
H           -5.29737760212910        0.37946586913210       -0.07143888110955
H           -5.12353325691524        2.11348136269860       -0.02827995588371
H           -2.55244201913515        3.07827431358298        0.04552016967299
H           -0.13141058108816        3.14195871755025        0.09055542528897
H            2.02621268538203        2.60601343068954        0.08727926603580
C            3.51531943813765        0.52266461319447        0.02280982751937
N            4.01079015758151       -0.73287740781760        0.01988817237241
C            2.97682059340966       -1.55442447805154        0.02259568743621
H            3.12531705185805       -2.61901240719720        0.01653410626017
N            4.37804160944153        1.57283220163621        0.07544749300945
H            4.07347166254196        2.47236633604009       -0.25472993589749
H            5.34024110720443        1.33297350722712       -0.09808800755574
H            0.72683466147250       -2.67826430019008        0.01161772868726
