31
 energy: -58.629749386627 gnorm: 0.000936358645 xtb: 6.6.1 (8d0f1dd)
N           -3.66894681962480       -3.13362952896685        0.52741482455321
C           -3.10091068122143       -2.15239332698990        0.33019671685196
C           -2.46219582995102       -0.93585265898597        0.10097214305899
C           -3.09534627190702        0.33176801211269        0.20665666576511
N           -4.37372157632685        0.53045395181552        0.53139422450353
H           -4.74086199299684        1.46568362258171        0.59015419109224
H           -4.97282166249480       -0.25366891800486        0.72915006401263
C           -2.14896524594740        1.34771509620552       -0.07641815429608
C           -2.42546457651349        2.71242631094950       -0.04595720164994
N           -2.69603836411750        3.83061936679896       -0.01097490041397
C           -0.91005154128644        0.74973161051151       -0.38424940476871
N            0.15514826951025        1.43093002659210       -0.63729477214121
C            1.46145216088562        1.28156117180813       -0.59951015566754
N            2.14801449978955        2.29372708578978       -1.17650011940651
H            3.15084744113701        2.25634603752022       -1.22503342741408
H            1.63794260165621        3.01688958774997       -1.65349002355093
C            2.19792270616115        0.30496133039604        0.11309143155504
C            2.00082500481121       -1.13299579151944        0.17011537805878
C            3.16762738671974       -1.62507812407751        0.75940835288564
N            4.01905058000762       -0.65468816298534        1.10373333416373
C            3.47567991551658        0.49608343374283        0.69002106779541
N            4.15679799708712        1.68853613213710        0.83367604098929
H            4.93930122823769        1.59305764410649        1.46657841506613
H            3.57734524591191        2.49047878778674        1.04142614255008
H            3.39424557584415       -2.64710786919110        1.00670889639566
C            1.00188095439102       -1.92546740638829       -0.46183419087752
N           -0.29185427844591       -1.72279703543764       -0.45908317140142
C           -1.12177744124100       -0.74966950034042       -0.27954876175312
N            1.39634371554231       -3.08516585603026       -1.03337846926723
H            2.34337116191291       -3.39596810103388       -0.90922304725895
H            0.69232822175027       -3.74559471755391       -1.31854506912993
