30
 energy: -54.879046111187 gnorm: 0.000810365346 xtb: 6.6.1 (8d0f1dd)
N           -4.61140565519876       -1.00783791482237       -0.73452936527814
C           -3.75728982610137       -0.27205700210135       -0.51128304128873
C           -2.74973169988151        0.67444692764063       -0.31528807338421
C           -2.89948507273795        2.06907293724837       -0.57864180663473
N           -1.80198714929149        2.74035868684593       -0.37008037970635
C           -0.82691160726411        1.84033516306778       -0.01122776160827
C            0.36521009090407        2.36837505074161        0.37618922580114
C            1.66777452497081        1.83497670699591        0.57725230893948
N            2.55402959035819        2.70091859446645        1.11564033201101
H            3.52024832651830        2.43914366988877        1.20482148427644
H            2.29632071047967        3.66055380492626        1.27044259286828
C            2.16164674793686        0.60962798550874        0.11994760747616
C            1.58971725554977       -0.71338727285476       -0.07894214011738
C            0.39799472855000       -1.31009401456127        0.41801030667370
N            0.51334837022504       -2.60294970941016        0.78939608530478
H            1.41842415544399       -3.04243315573995        0.78470439258376
H           -0.29090950823476       -3.11200608726176        1.11933607900183
C           -0.89756639498316       -0.75218438851285        0.48878140235266
C           -1.87879480290460       -1.60784666469058        1.03801157361547
N           -2.61339851468019       -2.31380302257799        1.57235671548665
C           -1.40788208918087        0.47707496054473        0.02051190124275
C            2.64870398675862       -1.46428746504840       -0.62084315181339
N            3.76247227053418       -0.72124281102603       -0.80600678728053
C            3.50599456470648        0.47405869907404       -0.31878005397359
H            4.24271143915725        1.25274314792250       -0.40418602343705
N            2.66671372928162       -2.80083777729817       -0.97330445446670
H            1.82449975715888       -3.14559911350683       -1.41343604935896
H            3.49988084079434       -3.02257013228781       -1.50156304104661
H            0.32122705327272        3.45098541401346        0.45389285250843
H           -3.79791734844012        2.55099805051577       -0.92150337444713
