34
 energy: -56.967421033187 gnorm: 0.000917589237 xtb: 6.6.1 (8d0f1dd)
N            4.52571545757887        2.08612670970779        0.63998263686513
C            3.82667774082119        1.19253738907307        0.42407825456284
C            3.00691904143335        0.10622188107471        0.16720987571967
C            3.42730143469928       -1.11347565650275       -0.40374194459662
C            2.31735955789176       -1.97297055186073       -0.52648077853846
C            1.19115868023879       -1.33426155115376       -0.03324713550104
N            0.08093117602571       -1.96224373296686        0.26652628305170
C           -1.16512368510225       -1.66047534694447        0.47447258968386
N           -1.87475431270513       -2.66442621944001        1.07999578914525
H           -2.77363629544269       -2.44524229723829        1.47238781708349
H           -1.33361982587669       -3.39799611509064        1.50752329645781
C           -1.92545275777745       -0.56414448439341       -0.02751525308932
C           -3.25014613465398       -0.69113259259450       -0.45416005152633
C           -3.74850159960173        0.58187181280845       -0.79305666386416
C           -2.78334596746650        1.52180709416961       -0.50974591762622
N           -2.94390390278396        2.89858921609123       -0.69945537212465
H           -2.12707261156045        3.34782061778509       -1.09544970267704
H           -3.77039245985788        3.09931395686786       -1.24859217490479
C           -1.60103847510128        0.86144629618898       -0.03036223634707
C           -0.50787898183328        1.55282330110068        0.49774976639473
N           -0.70807526613711        2.87674486134178        0.79637510235678
H           -1.65333530951942        3.19120746345302        0.94279073759142
H            0.02759032682992        3.37264286520640        1.26941334577132
C            0.85686624606916        1.16795294170672        0.63245658962216
C            1.58902807310758        0.05882638024187        0.32570375267256
H            1.48737993813895        2.01543028183412        0.89859190721283
H           -4.72790782130358        0.78032980701158       -1.19064815163451
N           -3.99409003018495       -1.85861526802386       -0.55076304787676
H           -3.44209109899684       -2.69439829639437       -0.68432896982813
H           -4.76112490459280       -1.78892859466525       -1.20444314581323
H            2.35092867659720       -2.98181659085751       -0.89021587325287
N            4.69635228259619       -1.40737123774048       -0.74550315592463
H            4.90540497583819       -2.25603014007499       -1.23845003160218
H            5.41215384922719       -0.70925455092359       -0.64394626666499
