27
 energy: -51.747300915704 gnorm: 0.000842462226 xtb: 6.6.1 (8d0f1dd)
N           -6.05811141675928       -0.56508300660406       -0.74146210567812
C           -4.93600835274251       -0.47493281651964       -0.51434117502256
C           -3.57076522226748       -0.34944124454908       -0.22924963055704
C           -2.62339660671376       -1.35536452921112       -0.25112743310947
C           -1.35255372830660       -0.80328218966493        0.06336846689904
C           -1.58813378419142        0.60745256725615        0.34913133021464
C           -2.93254502912205        0.85499040392047        0.18232714630038
H           -3.43086314199924        1.80055095386464        0.29929877296026
C           -0.65898228853907        1.55328561801657        0.90709337083945
N            0.54025882996127        1.79585030302503        0.47829137102702
C            1.53932623945852        1.18855612985237       -0.06553661717834
N            2.56705388756486        1.84266588076815       -0.60198133466040
C            3.52105549940988        0.90979227226140       -0.75496368678002
N            3.18615121078753       -0.35469425847437       -0.39039550907157
C            1.92081217211331       -0.27740891909915       -0.01047250021201
C            1.14283713661507       -1.42573126771826        0.18206058626859
C            1.90456797630815       -2.62567263962212        0.20535722098305
N            2.48509153490894       -3.61247563381545        0.26226897404542
C           -0.23922007105950       -1.62587761583216        0.14632350946486
H           -0.49659549214907       -2.68118975612054        0.08896631384248
N            4.72476348917117        1.18810126816548       -1.23636039523616
H            5.40495931305063        0.45129322533024       -1.30273846782270
H            4.93473544820096        2.12486986772149       -1.53252759984571
N           -1.11081741886052        2.35287040695747        1.89000657424343
H           -0.51458964156741        3.08542990565523        2.23672039249821
H           -2.06819100854156        2.30092968286202        2.18842758146491
H           -2.80083590132748       -2.38339256362630       -0.50649744347745
