33
 energy: -58.041168163905 gnorm: 0.000708940742 xtb: 6.6.1 (8d0f1dd)
N           -5.15597200470192       -2.19739676920954       -0.16548716463714
C           -4.52286895186160       -1.23781325452369       -0.22679980608513
C           -3.73313883988801       -0.09425973043104       -0.27580328311386
C           -4.12103313637598        1.19827933474353       -0.68212046058107
N           -3.14869336291536        2.08080826694284       -0.58026309591181
C           -2.03895454082011        1.42004614091500       -0.14332830461371
C           -0.95720659578089        2.17713328893368        0.19862926835923
C            0.39905393556891        1.91963133328927        0.52095820346718
N            1.06564286016569        3.02228038720769        0.95239472452672
H            0.55282366496571        3.86580918785113        1.14146719346986
H            1.99896477499402        2.92980312641011        1.31625714491672
C            1.17630116204273        0.77603237995112        0.27104066982733
C            2.56161688362115        0.88110597028971       -0.00663455494175
C            3.08735154055573       -0.40691021477600       -0.18254643168501
C            4.39007183654903       -0.70799668130588       -0.56987140842064
N            5.46120763402597       -0.95836593041587       -0.91023739535713
C            2.06011170844870       -1.34924815185722        0.05485613523034
N            2.27910089181843       -2.71957228620047       -0.00420299587045
H            3.16612398295256       -2.95023015807548       -0.43286151587128
H            1.51694375359843       -3.25692661092952       -0.39407221199268
C            0.86348023698236       -0.66640304701366        0.32100571310590
C           -0.29401081448092       -1.35806243657660        0.76601382232381
N           -0.06435413453486       -2.56350066138666        1.34993136933508
H           -0.83876382192002       -3.11500360900140        1.67573476725525
H            0.86874543993371       -2.82482147084589        1.61804098652824
C           -1.65557345533357       -1.07257372695731        0.57929478580019
C           -2.35775599039039       -0.01452980916485        0.04776377742073
H           -2.29881346042076       -1.91071477151775        0.83954223173453
N            3.32267722523411        2.03441851077948       -0.15060257857005
H            2.85354564454520        2.79767584243341       -0.61988659556168
H            4.22890988738652        1.84170260350925       -0.55918145970174
H           -1.18790223468681        3.23795953100465        0.15236882761205
H           -5.09436588446961        1.48778905022388       -1.03865151629651
