24
 energy: -43.753272749270 gnorm: 0.000784940404 xtb: 6.6.1 (8d0f1dd)
N            5.39534068119563        0.40368684309414        0.52628152790059
C            4.25837533054641        0.40638527840586        0.35192537592664
C            2.87726477293785        0.35797263866554        0.16111684362844
C            2.00139053704075        1.43031790658791        0.00089904750674
C            0.69097740156213        0.95082814511676       -0.14884373141507
C           -0.37081199175181        1.80241673365325       -0.48452483109530
N           -1.64104815387572        1.65717289679250       -0.31472819929524
C           -2.58687581273710        0.80828913040921       -0.18080023049951
C           -3.84811274621803        1.06055461463148        0.39135368419337
C           -4.46980116498150       -0.16490006554245        0.53552609948738
N           -3.66514126913119       -1.19876882327462        0.24952314814813
C           -2.51560456737624       -0.73412893362540       -0.20700012976768
N           -1.48071156364481       -1.46815670818880       -0.38638073949401
C           -0.19712575315456       -1.45383480589817       -0.51965832544321
C            0.76053420089208       -0.50801614664539       -0.13511558350812
C            2.12726720863634       -0.84487189193084        0.04188829698282
N            2.66410265556397       -2.08008869536552        0.09785681052687
H            3.63639084651836       -2.17876583863403        0.33461405779822
H            2.07835897193764       -2.89498956757700        0.12637048100587
H            0.19077320415942       -2.39409102444837       -0.91125963003413
H           -5.48304236724012       -0.35342671406795        0.84267584372396
H           -4.26590186778583        2.03397391976041        0.55561609185646
H           -0.09042768900728        2.80034285389487       -0.81427326731813
H            2.28528673501258        2.46650312588685        0.00909467958362
