30
 energy: -54.885726318536 gnorm: 0.000566457412 xtb: 6.6.1 (8d0f1dd)
N           -4.26596207666919       -2.46949312044973        0.86821193207467
C           -3.54731733033532       -1.60865784593685        0.60785800105276
C           -2.73675049309915       -0.51319495250867        0.32869139990385
C           -3.16740073809478        0.84206744394514        0.40969234356804
C           -2.10631124553349        1.68419359619433        0.03057890636246
C           -0.97779664553788        0.91666158299050       -0.22533316234383
C           -1.42041111111274       -0.52148715994404       -0.16761624749392
N           -0.87662249167886       -1.57084222168341       -0.69108578349833
C            0.29497576877497       -2.00727219951639       -1.02263366318059
C            1.53151231328517       -1.66511499300199       -0.48551581497180
C            2.59692774306390       -2.57622163326528       -0.37940952554418
N            3.64705409027001       -2.05984664397114        0.24486677281005
C            3.34992422673254       -0.77595192012132        0.50397614730244
N            4.30504396339100        0.02011538960925        1.10858802432360
H            3.96280408980126        0.61985274748244        1.84774564055257
H            5.09821064348707       -0.53799610666338        1.39809492196643
C            2.04217666705168       -0.41650290449190        0.07754791777167
C            1.62240873981407        0.91723383808667       -0.10505743490289
N            2.59495361713658        1.85554852319356        0.01902161861581
H            2.38306597012715        2.82000937379938       -0.17813577539034
H            3.55830041535569        1.55792611526976        0.00214425410587
C            0.31377399092150        1.45229605445609       -0.33703374429385
C            0.28899859591121        2.85486005880123       -0.51849792256654
N            0.27687850330678        3.98940491182823       -0.71195709775445
H            2.58808222629712       -3.60680897371026       -0.68182098219519
H            0.26701796287504       -2.86814082341477       -1.68674900060245
H           -2.15041675913939        2.75699869392410        0.03529585710478
N           -4.38522635212290        1.22848537823062        0.80194924894465
H           -4.64914191135616        2.19767318193746        0.77192161185520
H           -5.06487047692515        0.53930841152820        1.07718742032182
