28
 energy: -51.440749668411 gnorm: 0.000847777859 xtb: 6.6.1 (8d0f1dd)
N           -5.20922264962097       -2.20793673878961       -0.52681869210184
C           -4.56589424081611       -1.28359399375782       -0.29149990752332
C           -3.75456318256110       -0.18847866490273       -0.01005203914030
C           -4.09853080625812        0.99692623724164        0.61562079539640
N           -3.06436112480957        1.85258192680139        0.74715821485203
C           -2.01136946635862        1.30475015722859        0.15273252549351
N           -0.93459392700672        1.97604599667646       -0.10019615757996
C            0.30382682996642        1.85564694126330       -0.40116888593729
C            1.21519401537569        0.82829586155930       -0.11227495770919
C            2.60117899795385        1.02885182783845       -0.07360361543258
C            3.25080248180251       -0.23633786995694        0.09899964807918
C            4.62692890579784       -0.42216948202477        0.21873628846163
N            5.76277334744256       -0.56801106367395        0.33056195997914
C            2.28127162743402       -1.23335859213788        0.10671761746093
N            2.53503795370653       -2.54767782256700        0.24059153868835
H            3.48082462168285       -2.84739499691248        0.40295256238951
H            1.79451215543635       -3.21448646814884        0.36172360442951
C            0.96859950628620       -0.61690941681422       -0.03811632483589
C           -0.13165137091983       -1.39920305474960       -0.25919992769178
C           -1.52949244563290       -1.18948302265519       -0.36288065988735
C           -2.33985307822664       -0.09743544996399       -0.26791988168298
H           -2.08352237917628       -2.12200907196354       -0.43933582352093
H            0.09920951957657       -2.45860153901799       -0.31798261311189
N            3.27031470023869        2.19421388105421       -0.15705960553012
H            4.26170575980750        2.20384359892779        0.00984681418630
H            2.77575560479511        3.06784220864909       -0.15772858153594
H            0.71763440822970        2.74141850016191       -0.88355247242391
H           -5.06887019734910        1.27746658792838        0.98528075792241
