25
 energy: -44.268796476617 gnorm: 0.000980271810 xtb: 6.6.1 (8d0f1dd)
N           -1.17881624823810       -4.19369073081095        0.00285395005183
C           -0.83099221878238       -3.10098715372526        0.00157459139592
C           -0.34869345827854       -1.76061273052762        0.00007561896516
C            1.04097682051347       -1.71878744194829        0.00077115889598
C            2.01636037936799       -0.73015056315878        0.00019093666381
C            1.98950423815674        0.76243982061725       -0.00142014776744
C            0.99648226620879        1.70692341599106       -0.00316373216827
C           -0.41145988154069        1.68314179355913       -0.00422588796526
C           -0.96940754025634        2.99772276043477       -0.00561100428147
N           -1.33146773299589        4.08403027820696       -0.00841156488013
C           -1.38260848607951        0.69425827159226       -0.00366799019269
N           -2.66044910466168        1.12963170435351       -0.00502200970660
C           -3.44767348989633        0.06535056366003       -0.00414967595738
C           -2.72468548430930       -1.13588715426270       -0.00213941842862
C           -1.37512229435173       -0.79803863740850       -0.00173899288465
H           -3.13856804048014       -2.12502513904747       -0.00111826221629
H           -4.51647620097847        0.18137425170219       -0.00494924193669
H            1.38313203166160        2.72377962718043       -0.00392483226834
C            3.34612038953360        1.17164343598092       -0.00091628405599
C            4.16458527685956        0.06249315670006        0.00073387852931
C            3.36450810279243       -1.08790451101827        0.00139490758481
H            3.72998246383811       -2.09841424634238        0.00267376539408
H            5.23932786202886        0.07064364906411        0.00142998604092
H            3.66660610605147        2.19684362973496       -0.00174550985725
H            1.48067632283649       -2.71426758142740        0.00211508024524
