28
 energy: -50.634790983056 gnorm: 0.000838905266 xtb: 6.6.1 (8d0f1dd)
N            4.91133136562963        0.82108996931045        1.72458734117224
C            4.11945991695648        0.28873380945655        1.08160986017000
C            3.16841138297310       -0.38415377678522        0.32133369982692
C            3.40716738303530       -1.44258004182115       -0.57797904541155
N            2.33332898433806       -1.90909835502626       -1.20307841276069
C            1.28931622495551       -1.22800513771580       -0.69186173134169
N            0.10439465648198       -1.70054792783679       -0.63907525464657
C           -1.04936532074307       -1.39238076242560       -0.05665760384634
N           -1.67394972462763       -2.49758333101430        0.45656014646545
H           -1.10657257542628       -3.32991564998283        0.50673399427562
H           -2.36012784143365       -2.36058770343928        1.18019657130428
C           -1.74788503138688       -0.18287619191217       -0.09621875282741
C           -3.14884667155645       -0.04972642717920       -0.12480660071774
C           -3.48015301626094        1.31344051560993       -0.22131596411800
C           -2.31883146784272        2.06680006831097       -0.23838029745709
N           -2.26669168589757        3.42881556893813       -0.23758808155219
H           -1.41111468401885        3.87566774863788       -0.51992917984771
H           -3.11424962306333        3.91442056656426       -0.47805233829114
C           -1.18938832981074        1.18114070150850       -0.15482940427315
C            0.09489884130926        1.64130053416692       -0.01055381463962
N            1.24474990182456        1.08986394088389        0.35312335291069
C            1.80557702912479       -0.04314972530452        0.13120348350787
H            0.22355987609815        2.71850557240920       -0.11448425828866
H           -4.48109628250110        1.70109432101450       -0.27808397356315
N           -4.06913267709600       -1.06648872184836       -0.09823273546416
H           -4.99059064794556       -0.81104182839695       -0.41978832987655
H           -3.74631984203844       -1.96131417466366       -0.43575964081982
H            4.37278688232310       -1.87345934625891       -0.78404777459001
