28
 energy: -51.439218056294 gnorm: 0.000718726503 xtb: 6.6.1 (8d0f1dd)
N            4.87763308782098        0.55380766613005       -0.50212235137600
C            3.90042189200831        0.01441842623584       -0.22558027440416
C            2.77969094055073       -0.74157665879030        0.12295207151005
C            2.87944497441661       -1.97997031518511        0.81151461384759
C            1.63016381224042       -2.51312518555393        1.02472752301952
C            0.67917516340129       -1.68057586922248        0.39569132080902
N           -0.51090459466519       -2.07326484528668        0.10904944035674
C           -1.65382536871332       -1.65744637427203       -0.36087609053268
N           -2.34534938362354       -2.53363975747613       -1.11426661200924
H           -1.95316690765035       -3.43727840888780       -1.31634677766455
H           -3.27665922113096       -2.31369166514134       -1.41647855795471
C           -2.27905354648738       -0.43259891267283       -0.00427257568600
C           -3.63596606905395       -0.20854408700983        0.14143427223332
N           -3.93582368608449        1.08536227543742        0.38642302263973
C           -2.79515569951736        1.75391668519285        0.35236387342201
N           -2.76163697470521        3.09232748382531        0.51385400587797
H           -1.89838771510319        3.56332861940376        0.71946762986442
H           -3.61941062586137        3.53052653920174        0.80224062680335
C           -1.65153967849011        0.88053206162932        0.11551453642955
C           -0.39949530872008        1.37401119641101       -0.13356188239740
C            0.89421338831585        0.81790072157833       -0.30795618608927
C            1.82632700599347        1.84503353813349       -0.62016040313087
N            2.47521436639265        2.74861726667400       -0.89959338435946
C            1.41702404493032       -0.44769449855237       -0.06583828717087
H           -0.36492542766707        2.46020042016505       -0.18210842829098
H           -4.42557336324448       -0.93847757516478        0.13744684696164
H            1.40139893699162       -3.45472668059943        1.48357724177691
H            3.81431294924169       -2.41707538115306        1.11529902409878
