33
 energy: -62.067063753930 gnorm: 0.000730202212 xtb: 6.6.1 (8d0f1dd)
N            4.86693869360584        1.05567893468302        0.09879231473248
C            3.89421662969604        0.43930146380015        0.08501963030127
C            2.80823811703118       -0.42428734818069        0.00078372278671
C            2.94560345687481       -1.76189793881286       -0.52001352958096
N            1.78846135434008       -2.41437660368278       -0.58284453340636
C            0.85110476607620       -1.58391566398333       -0.09370356397039
N           -0.28140488454536       -2.05093719596270        0.28497764392689
C           -1.47277761157369       -1.60800963101032        0.61943373109917
N           -2.18244359698443       -2.46070076030691        1.40366700255701
H           -1.68582812389377       -3.23568108904251        1.81051892570490
H           -3.03074271614054       -2.13826382494047        1.83595688938628
C           -2.13140838697599       -0.50304105733313        0.05536663063478
C           -1.62765215385232        0.82814351425798       -0.28104084136698
C           -2.77917869368140        1.48016685342165       -0.81197226560599
N           -3.86184737708145        0.70206017894193       -0.82089501962613
C           -3.50200886339168       -0.46701409708020       -0.26771168163585
N           -4.42959787908474       -1.46475831250519       -0.09754925963024
H           -4.07261273716816       -2.40686109546626       -0.16486236136146
H           -5.26930786670250       -1.30240259275354       -0.63456382593526
N           -2.87686141303471        2.77476299520702       -1.28485111577695
H           -2.10663106972850        3.07559616154857       -1.86730861041974
H           -3.77729125710822        2.92808808776187       -1.72020374545447
C           -0.47300950326066        1.50779667110096        0.13267835447221
N           -0.54396277385454        2.86624013104142        0.13439243085897
H            0.23263743226255        3.39275248716545        0.50129294048722
H           -1.45353642619633        3.29995940726513        0.12009747523095
C            0.82181962907805        0.99318269101988        0.48607698432520
C            1.69496873087010        1.94620903659850        1.05359793955889
N            2.34715801425471        2.71965735801764        1.60330390907337
C            1.43898542771501       -0.22296311589566        0.18379105154521
N            4.09645628843287       -2.30405791857977       -0.91387802284967
H            4.95582742823828       -1.79077507637668       -0.81521658207901
H            4.09453839218520       -3.23141665831707       -1.30092524918228
