29
 energy: -50.366709991014 gnorm: 0.000904339954 xtb: 6.6.1 (8d0f1dd)
N           -2.32402062432644       -3.33480529247221        0.05105614805377
C           -1.64738449415263       -2.40318084767391        0.01544531217585
C           -0.79952842834066       -1.27477740737684       -0.01033593031361
C           -1.54468039013693       -0.06458469433215       -0.10202317300505
C           -1.25135662792147        1.33638762589861        0.31884342967912
N           -2.38370250713449        2.07814439308883        0.24069534018366
C           -3.34003581494401        1.28581091351469       -0.23199690055606
C           -2.87760032570138       -0.04928613071502       -0.43599135722672
H           -3.47583683119459       -0.86785693708947       -0.78589050039556
N           -4.57675299687647        1.73587835042683       -0.48063021148786
H           -5.29669166120770        1.11030691122477       -0.79248194755256
H           -4.79596484039768        2.69277132218286       -0.26799416477085
C           -0.13405458509563        1.98636129544948        0.78182990988409
C            1.23461788405588        1.69943905166880        0.75394865245387
C            1.97162857972056        0.65268888241376        0.27112449534379
C            3.40158909863644        0.79836855985568        0.01202885093941
N            3.91827808720612       -0.27778484078692       -0.54239892008056
C            2.92011525287160       -1.19213542168159       -0.60003300213608
C            1.70015446788889       -0.71843948555936       -0.14320100944737
C            0.56767074532957       -1.57697548015059        0.02025647977036
N            0.88627253345767       -2.88863954857449        0.15518940551053
H            1.84812501127015       -3.17019975774975        0.19051505441213
H            0.16335839850125       -3.58760520429785        0.18727523739389
H            3.13852153391838       -2.14815911601821       -1.04322377922939
N            4.16722542290977        1.88806587665854        0.27282008340755
H            3.72643653867387        2.78362218321871        0.39286487529564
H            5.07251112548169        1.88547186731336       -0.16770447226387
H            1.83677115156778        2.53257889947009        1.10565777120419
H           -0.37484258616205        2.98685607099330        1.12377708405745
