26
 energy: -48.003972852000 gnorm: 0.000602970590 xtb: 6.6.1 (8d0f1dd)
N           -2.80230022350052       -3.51030169677755        0.25359139874720
C           -2.35771574788984       -2.45715891058967        0.13352374075236
C           -1.88473520067389       -1.15030645192707        0.00489479145589
C           -2.69517341571985        0.00278356585047        0.16952078013930
N           -4.00064547239617        0.00427284697539        0.44439702491954
H           -4.49514352768927        0.87500717880933        0.54684213545931
H           -4.49679612165807       -0.86532784309247        0.54851574472294
C           -1.88257062247755        1.15405883772506        0.00265704666872
C           -2.35314528416689        2.46203770287805        0.12873900037877
N           -2.79579429845015        3.51622201845383        0.24678572413439
C           -0.56961983921670        0.75725284760260       -0.31360285249428
N            0.40040071154824        1.60564920053443       -0.43472389756483
C            1.69447652917285        1.63820080852142       -0.39454454389779
C            2.63155868687116        0.72873985583219        0.11384730678736
C            3.93153466755560        1.12392384730245        0.47747064043144
C            4.69833067000513       -0.00385046211738        0.74773315134417
C            3.92941890194814       -1.13061879546819        0.47917424858442
C            2.63017654943919       -0.73358325797436        0.11504594851529
C            1.69133606739305       -1.64203413611560       -0.39191393101706
N            0.39732698449332       -1.60701128883109       -0.43190349027645
C           -0.57105196559022       -0.75657796756578       -0.31214286862642
H            2.09139777020521       -2.60768946942336       -0.69755743387022
H            4.25776255172483       -2.15150988501577        0.54771600777889
H            5.72907674155108       -0.00457829772932        1.04966188744174
H            4.26180574468253        2.14430336701137        0.54438365814408
H            2.09644970783877        2.60270639853116       -0.70187771555826
