33
 energy: -63.647720651567 gnorm: 0.000930290828 xtb: 6.6.1 (8d0f1dd)
N            2.77746846630756        4.18142649234846        1.23641010565832
C            2.69655156403986        3.06463633313286        0.98052453533691
C            2.58391546225828        1.70949484832139        0.65927051335769
C            3.51911638999431        0.71249506131873        0.86237044929091
C            3.02737527958454       -0.52194777716475        0.36147358417212
C            3.73195247665930       -1.72258335080781        0.50508872657439
N            4.35079308731219       -2.67447914897443        0.68031047270226
C            1.72482481491961       -0.33562458300941       -0.12231980977291
C            1.46311908495123        1.12873915121955       -0.02264213878201
N            0.59077045122836        1.83591848224241       -0.63910010078438
C           -0.60988335858918        1.72739298548102       -1.14646124009619
N           -0.93148350822883        2.58459396592353       -2.12926593079679
H           -0.26488120700346        3.28460021464744       -2.41043418655095
H           -1.88665524632084        2.66244456793723       -2.43188554382373
C           -1.61989397285195        0.92073658407160       -0.55742616085170
C           -2.91200969714759        1.36727758437679       -0.31500457792629
C           -3.63555323159259        0.32992065367338        0.29055297789808
C           -4.95251033589134        0.37884403346281        0.75064270762074
N           -6.03199882875763        0.37739005084829        1.14682068792023
C           -2.80837149396524       -0.81392044064348        0.35728486156773
N           -3.23663896116169       -2.03808272968461        0.83972087614635
H           -2.54795388554991       -2.57702639872134        1.34617892913443
H           -4.12134926367538       -1.98405894757728        1.32733620560248
C           -1.53124343555397       -0.48066407132204       -0.14895199400139
C           -0.56264600106591       -1.45919453158253       -0.49861157396551
N           -1.05039331411792       -2.70006950244571       -0.71492588728563
H           -0.43207651447854       -3.46358902948650       -0.93641200852510
H           -2.04601629583535       -2.84288088003029       -0.75790791144558
C            0.86194499221330       -1.35065378938230       -0.55822102064981
C            1.51646776506337       -2.53575215242055       -0.97128059510401
N            1.98436476848101       -3.48836893199435       -1.41233213697596
H           -3.28295477717641        2.36081468462638       -0.48478370245772
H            4.47634270884976        0.83442459541234        1.33698086841330
