24
 energy: -34.955811563977 gnorm: 0.000458093972 xtb: 6.6.1 (8d0f1dd)
C           -3.84780115052412       -0.00006134231043       -0.00066110960443
C           -3.03927193173304       -1.13046708565523       -0.00075003177715
C           -1.69012463263363       -0.74700871941798       -0.00057894046977
C           -0.69469507938079       -1.70839429789678       -0.00042368897925
C            0.69475122684899       -1.70837671648140        0.00002460538133
C            1.69015157189133       -0.74696621468538        0.00021558140465
C            3.03930304784968       -1.13039023484239        0.00068907877011
C            3.84780028291230        0.00003755836141        0.00055830436163
C            3.03927451661222        1.13044403282528       -0.00000656264889
C            1.69013228115523        0.74698495359780       -0.00018866152637
C            0.69470769151995        1.70836957500250       -0.00053617713458
C           -0.69473924023450        1.70835147390243       -0.00052796424035
C           -1.69014364848274        0.74694060344094       -0.00046519696663
C           -3.03930137073574        1.13036465875695       -0.00049361795084
H           -3.38478399533512        2.14820865694317       -0.00041481539531
H           -1.11161925390245        2.71238302048987       -0.00062266860963
H            1.11156195898195        2.71241149202336       -0.00074432914174
H            3.38472981641617        2.14829845916500       -0.00022144033554
H            4.92361745076873        0.00005117297965        0.00084725815038
H            3.38478490571939       -2.14823559477957        0.00107516689084
H            1.11163157720126       -2.71240779379774        0.00025722235489
H           -1.11154963060930       -2.71243641281928       -0.00056832209479
H           -3.38472891901371       -2.14831979509232       -0.00087651807869
H           -4.92361715739206       -0.00007539050984       -0.00071298235991
