34
 energy: -61.786359790394 gnorm: 0.000730912471 xtb: 6.6.1 (8d0f1dd)
N            4.42843416427363        2.57603176105489        1.11958796499726
C            3.86699875841428        1.62892911654947        0.78052237423641
C            3.24498222088369        0.44839062046072        0.40122793243840
C            3.85858708639304       -0.85630871619036        0.45312270092014
N            3.06938230032748       -1.81505934110968       -0.00605534450191
C            1.87765699677676       -1.23567539041051       -0.31573012417188
C            1.98687373448683        0.24753687438875       -0.16270352391260
N            1.22224991220857        1.18494150707770       -0.65219852813315
C           -0.03123804716010        1.33153710187278       -0.94799591078177
N           -0.30408629307322        2.36491431598626       -1.77944736706041
H           -1.24930572911696        2.56358680649268       -2.05244448270654
H            0.45994817916147        2.89741669853661       -2.15739668294186
C           -1.16053014516177        0.65429478999051       -0.37529822159116
C           -2.33793685582586        1.31105494212058       -0.04042978133595
C           -3.30359061463002        0.33974836042423        0.35532812769888
C           -4.57596027564692        0.61506357235286        0.84443604677257
N           -5.62120467973338        0.84145190999392        1.27255038227333
C           -2.74224687966902       -0.92722601389411        0.19165294080277
N           -3.41675258637297       -2.10730009531873        0.46471017566138
H           -2.85278097911141       -2.83063675566562        0.89101355946091
H           -4.28111288176380       -1.94837910748562        0.96726585348236
C           -1.39056151334355       -0.78302118998714       -0.25332309926055
C           -0.59719705377065       -1.87789659208752       -0.62526981020988
N           -1.25998144193933       -3.04602321675748       -0.88112758204381
H           -0.73084406571954       -3.83086579951335       -1.21999622629731
H           -2.23907317434647       -3.00483377935476       -1.11135921773313
C            0.81548719684667       -2.03779230507177       -0.61375888296675
H            1.12125364025892       -3.07595822417992       -0.70998606676985
N           -2.59555558962068        2.66850961270709       -0.07742031691495
H           -1.79496003503205        3.26416457537651        0.07763530629698
H           -3.40297827712413        2.94252342414591        0.46497944180174
N            5.09243166795876       -1.09349808946702        0.91080495256245
H            5.45573910738277       -2.02912703676300        0.88101278245592
H            5.65114518658812       -0.33979572107539        1.26970188127344
