28
 energy: -50.652397701951 gnorm: 0.000663075637 xtb: 6.6.1 (8d0f1dd)
N           -3.96390504617561       -2.53181857268787        0.73779345626389
C           -3.32262359932333       -1.61326795890308        0.47079026523570
C           -2.61633995890005       -0.45537943575589        0.17441973418224
C           -3.19692965622336        0.86387455047723        0.13738346299974
N           -2.31740989939690        1.80018622196605       -0.18312748618271
C           -1.10986683704987        1.19062540316127       -0.31238268867595
C           -1.28686614873890       -0.29800176342148       -0.22080492493136
N           -0.50675587029503       -1.27900923646731       -0.57703704468824
C            0.75988716693634       -1.48734476608217       -0.72236729416800
C            1.86860349452035       -0.81904910950024       -0.20132225066829
C            3.10272401117086       -1.46651148278040        0.04324047393559
N            4.04247141048151       -0.61233447432151        0.49696371395143
C            3.48772895546958        0.58886611024689        0.49780328032443
C            2.12965011346147        0.58856995155040        0.09831482804160
C            1.40157083020097        1.76471347735158       -0.14002001474985
N            2.10883838810731        2.92154855218866       -0.15744031943214
H            1.63404376334823        3.80430629705634       -0.22241644320928
H            3.10265409713348        2.91568457404899       -0.02114704587109
C            0.00508993459984        1.97662890023948       -0.31089949965719
H           -0.26394086539647        3.02921947666771       -0.32678922732254
H            4.07419390975256        1.42040312623906        0.84892472773006
N            3.40351764073563       -2.78116962701673       -0.12068851240856
H            2.65366535063599       -3.44916696177945       -0.15342684328979
H            4.25888058513163       -3.08223178713679        0.31560914848969
H            0.97003027663419       -2.42108681599255       -1.24422704592142
N           -4.47897847748692        1.13429418325780        0.39878601876958
H           -5.11022048158279        0.39317644380573        0.64868190280846
H           -4.81366025395135        2.07556104608714        0.29463518844359
