26
 energy: -42.391913440803 gnorm: 0.000307552020 xtb: 6.6.1 (8d0f1dd)
N            3.03793089129773        2.41654956836170        0.06877406968863
C            2.54678979124135        1.13689097620529        0.05567225846671
C            3.35101190019682        0.00000303713397       -0.00426047938333
C            2.54661951667627       -1.13684767548939       -0.06254982180074
N            3.03767474633951       -2.41652868477843       -0.07665722309664
H            4.00904122493489       -2.50514293557516       -0.32689627298558
H            2.44429550987206       -3.14009967932166       -0.44800151587275
C            1.17770565738250       -0.75291666958659       -0.00362854399107
C            0.19320818063573       -1.70033649256192        0.12048831268219
C           -1.20133373200391       -1.70435839222915        0.22459678390823
C           -2.17397279685629       -0.73686080903299        0.12166866209877
N           -3.46889132628918       -1.11496273862162        0.19742469055121
C           -4.16478779710311        0.00021811908636        0.00362433918186
N           -3.46923966167200        1.11526171977102       -0.19199387985767
C           -2.17418912915299        0.73711515860971       -0.11885700773598
C           -1.20171763659664        1.70456780476264       -0.22380170564454
C            0.19303259720874        1.70048608227286       -0.12254804158290
C            1.17774165829557        0.75302229845653       -0.00044483873027
H            0.59289333563087        2.70924823869152       -0.17851156297450
H           -1.63607863429640        2.68613925194588       -0.37840143762298
H           -5.24104556804049        0.00017223307556        0.00443790270173
H           -1.63541912698507       -2.68590855464307        0.38009694272331
H            0.59313733173939       -2.70911825718749        0.17561446371964
H            4.42672104133998       -0.00002106295183       -0.00536156811298
H            4.00981034375421        2.50512055648143        0.31702857836932
H            2.44534286325006        3.14014986252491        0.44132511270042
