26
 energy: -48.789804767480 gnorm: 0.000731566174 xtb: 6.6.1 (8d0f1dd)
N           -6.32953345395226       -0.82915319722375        0.16270350106766
C           -5.21606666894239       -0.55750893577608        0.12049443123592
C           -3.85298519213358       -0.22593591914097        0.06275435321279
C           -2.78724206924554       -1.15669995653850        0.02291726634478
C           -1.57787929099783       -0.47603256679243       -0.02207293524375
C           -1.91226550005925        0.97583707803530       -0.02081601069708
C           -1.16826492957226        2.12921354616013       -0.08083992802764
C            0.19906266130128        2.42298938247273       -0.11557289675222
C            1.36476354311375        1.69859399260506       -0.06221239529896
N            2.50016790716011        2.45533675508280       -0.03812884320331
C            3.52336322403755        1.64814270084126        0.05345457445831
C            3.13282212406773        0.27677650658055        0.07148535956494
C            4.06612104972894       -0.75819127129541        0.19936984965077
N            4.91836188832886       -1.51571036178833        0.33241385950784
C            1.73636446747650        0.26100751048040       -0.00861437768173
C            0.97111432274345       -0.92150634391410       -0.07670935811222
C            1.72521916453760       -2.12847161822297       -0.17209898396668
N            2.23638718037413       -3.14771527259537       -0.28547245229782
C           -0.38779706591052       -1.20204650339123       -0.07651329312026
H           -0.58189825845400       -2.27194445189211       -0.11588658537452
H            4.53154418913835        2.01777579243582        0.10777876525504
H            0.41999751777562        3.48448000290470       -0.16184429052441
H           -1.78634469078960        3.02209328038651       -0.09334924802551
C           -3.32419045567550        1.05529837193351        0.03115246661481
H           -3.89014083562814        1.96802974338538        0.04433732058391
H           -2.90703271972305       -2.22430088683286        0.03199724332930
