24
 energy: -43.749927888023 gnorm: 0.000430440855 xtb: 6.6.1 (8d0f1dd)
N           -1.71990260806085       -3.50443865629213       -0.53338998843959
C           -1.35614231653209       -2.42295129092976       -0.41998482155520
C           -0.81866990267179       -1.11218911974051       -0.30265828193406
C           -1.78096823964894       -0.11688045284591       -0.22488596743279
N           -3.07823801983258       -0.40717385402765       -0.07559903715755
C           -3.62150269157535        0.68899001019391        0.44879449563130
N           -2.81141970993591        1.71911943332232        0.67547059038007
C           -1.62781559566042        1.34387687641673        0.16656148029088
N           -0.65193071125409        2.15032526500799       -0.01529945995122
C            0.58431699958380        2.18381060272858       -0.39511195495201
C            1.61430503552812        1.28216382606434       -0.14818471166775
C            2.96226979335720        1.64478612998082       -0.16236271344634
C            3.76203494877786        0.53555764160618        0.09998030701724
C            2.94609866258383       -0.58397679681854        0.23323724349746
N            3.38490048578766       -1.84669136514996        0.44390837805162
H            2.74724691584981       -2.56719056329442        0.73399248620836
H            4.35595350678355       -1.97910196283751        0.66620638285765
C            1.56635886360616       -0.18047108412970        0.06150457188679
C            0.58704229578340       -1.11811612195292       -0.12496583910536
H            0.95779141761582       -2.14103487337979       -0.10664432127553
H            4.83424854300775        0.53286209937170        0.16400554349809
H            3.32095061091128        2.64626891699457       -0.31380145996940
H            0.87065301608571        3.13217385419423       -0.84563499389361
H           -4.66849574138978        0.73649837701748        0.68779572876091
