30
 energy: -50.093394200003 gnorm: 0.000916410828 xtb: 6.6.1 (8d0f1dd)
N           -3.40274486513721       -2.70673403120777        0.86128555635368
C           -2.96996451335383       -1.67725418985892        0.57598682034960
C           -2.51089718367910       -0.41086170891458        0.23760970308248
C           -3.34847012191674        0.74059844164905        0.10030235839437
C           -2.56593150123581        1.82317013946693       -0.29510096286991
C           -1.22122295931100        1.43152831684333       -0.35702062889943
C           -1.20169669096780       -0.04541962432770       -0.11192784613084
N           -0.27692281079343       -0.92229257442670       -0.35818422499771
C            1.00899333447778       -1.02246823581369       -0.51170430090244
N            1.40060875005089       -2.15062511811965       -1.16894878649403
H            0.68296787856970       -2.68682520290079       -1.62820836003285
H            2.34851858172409       -2.22357973353332       -1.49538823137412
C            2.03343340196827       -0.21830103160606        0.06353088122000
C            3.28372949731224       -0.69258782642257        0.45919360307808
C            4.10631037677924        0.41476035602164        0.80048482345033
C            3.40119863531917        1.56304600941911        0.57663893999246
C            2.07753960715413        1.23931950188967        0.14903572925401
C            1.19105397710483        2.24972751249456       -0.16900802513358
C           -0.17808477738173        2.33501373076751       -0.42899773319759
H           -0.52190961491095        3.35415020142609       -0.58373637587953
H            1.66499147302920        3.22735417650520       -0.13799008387086
H            3.75354291652768        2.56635478872249        0.73119218285417
H            5.12085230097453        0.33601307224530        1.14784286619332
N            3.70673504336614       -2.00834216862561        0.50222114794396
H            4.49954494919178       -2.16385369726992        1.10796215250617
H            2.97247869229149       -2.69043281899025        0.62789692927500
H           -2.92694745660613        2.82286522831977       -0.45282834370028
N           -4.67208887540827        0.73881997785590        0.34374392509044
H           -5.22722939287843        1.55172528795453        0.14709816134162
H           -5.12797374176003       -0.11982190626217        0.59908070140352
