26
 energy: -47.991196915108 gnorm: 0.000755963596 xtb: 6.6.1 (8d0f1dd)
N            5.77404894567635        0.30050019418467       -0.59926942930693
C            4.66157196118072        0.15866251457098       -0.35229091770687
C            3.30412411156292       -0.00691361922418       -0.05181081160529
C            2.70563914734232       -1.16867032707756        0.46538703858919
C            1.33590838212850       -0.95417858606948        0.56798319671229
C            0.46353879355953       -1.95621503165908        1.05068929180367
N           -0.71626594796652       -2.24056622934864        0.64387959736032
C           -1.72273790684521       -1.69293984343327        0.04013548658843
C           -2.76424232563213       -2.37021859570248       -0.59556849459614
C           -3.76918881033506       -1.42836610216466       -0.80617708069266
N           -3.43047847333372       -0.19556309590232       -0.42388977257408
C           -2.16981803283269       -0.24797054880039        0.01716915271008
C           -1.46511337636111        0.93152602980324        0.19411165188234
C           -2.31910542894616        2.06346479006810        0.06942036898353
N           -2.96491666916101        3.01008839794093        0.01175152970315
C           -0.07375237805378        1.25299637770825        0.32133501178533
N            0.18073180486942        2.56360565425097        0.50943885665505
H            1.12955544954954        2.88660014910644        0.57776364397756
H           -0.56656377470661        3.23956567879381        0.50246641310296
C            1.06812581648080        0.42556795789626        0.17005373050435
C            2.31681552833948        0.97224333868732       -0.18230483148270
H            2.50028760428282        1.95512512661142       -0.57844984331276
H           -4.74784908223292       -1.60675877864083       -1.21512338023484
H           -2.80884012456588       -3.42159132908780       -0.79321710944855
H            0.89256353623094       -2.69104224036770        1.72855136534627
H            3.21475187436979       -2.08581817534329        0.69426265745643
