24
 energy: -43.764126786965 gnorm: 0.000493419650 xtb: 6.6.1 (8d0f1dd)
N            5.89187703689846        0.06947825238570       -0.69634997164822
C            4.77082639054477        0.05679953439387       -0.44505151106846
C            3.40321098669545        0.03724414508058       -0.15090150622167
C            2.61616033123253       -1.11858059691424        0.02149305131555
C            1.30035522087516       -0.73780155075485        0.27783927126025
C            0.31525743273454       -1.67538896624676        0.68607071206958
N           -0.96201521018695       -1.66996152684580        0.57528159104004
C           -1.91224403494510       -0.83815491631437        0.23755791388313
C           -3.09414946044481       -1.19492203952487       -0.37824233114850
C           -3.78050290828897        0.01138592468423       -0.66254062050953
N           -3.07076774840102        1.10508043275365       -0.32689929035424
C           -1.93468404217565        0.69187938267445        0.22321788244074
N           -1.01363361262784        1.52508776587461        0.56533146316894
C            0.26077914268479        1.58592121478743        0.75165697826516
C            1.28049999197729        0.71714863521908        0.32280125163251
C            2.59548811623109        1.15140922680088        0.09080014226130
H            2.91753656323306        2.17621587102032        0.06951148944384
H            0.58586752909919        2.51876889851997        1.20942018588792
N           -4.98712364169191        0.13367500475581       -1.21922522539406
H           -5.52489988976757       -0.67488430758907       -1.47429554426987
H           -5.36745099925363        1.05568419150906       -1.34509758679497
H           -3.44205708462624       -2.18896973266618       -0.57458643724082
H            0.70901174331716       -2.61483608950435        1.07197921552035
H            2.97571304818623       -2.12920609989958       -0.04411467943842
