31
 energy: -49.796089603295 gnorm: 0.000695778307 xtb: 6.6.1 (8d0f1dd)
N           -2.64695980572756       -3.42081427242280       -0.43671561611417
C           -1.95609701206442       -2.50758707576107       -0.33698019535505
C           -1.06580631067851       -1.41182869267545       -0.20860345704412
C            0.25903206309253       -1.82398268771599       -0.20717678023265
C            1.51121513275740       -1.22383254499884       -0.20777261592393
C            2.63066311866606       -2.04391548411412       -0.43624990989044
C            3.77849192462121       -1.27416074630276       -0.47690324584589
C            3.43158957108002        0.05140002243816       -0.21899765133452
N            4.36425764551925        1.09970174417921       -0.18259800539202
H            4.06927726277390        1.91718535077478       -0.70340700349806
H            5.27242945927620        0.78498632742873       -0.50191560988715
C            2.02890114916685        0.14143366208306       -0.01110555856047
C            1.40534458825217        1.30123729977115        0.47085466748759
N            2.24250960087041        2.27798339031333        0.93900590503570
H            3.18761967004350        2.01778990703514        1.17369982293253
H            1.83950698491445        3.05927345531851        1.42726483884177
C            0.04928695659131        1.70860946936072        0.47458071607522
C           -1.18694107329245        1.20451025398582        0.15929725473267
C           -2.30852122007518        2.06206211439737        0.16032039457212
C           -3.44703477381732        1.33502726564724       -0.14407200638924
C           -3.07168402009362       -0.02868977279428       -0.31692276240811
C           -1.71242177011559       -0.15630995068344       -0.14890760863285
H           -3.75700928024116       -0.82445075645965       -0.54263825911490
N           -4.71514341744684        1.79308400282517       -0.22730591607067
H           -5.43712913325547        1.18492639255264       -0.56914846460597
H           -4.89170018772638        2.78150358452424       -0.20954165341219
H           -2.27137015476438        3.11918334585112        0.34866231153069
H           -0.02966231439916        2.75371470565845        0.77261850753484
H            4.77593417639314       -1.62493929607096       -0.67546444038785
H            2.58295702186009       -3.10479284189270       -0.60055879904074
H            0.34348669181513       -2.90558601415225       -0.29718058100667
