30
 energy: -54.101646721984 gnorm: 0.000957345197 xtb: 6.6.1 (8d0f1dd)
N            4.39844163360157        1.96396581243153       -0.50791846869653
C            3.62750718849565        1.12758562822951       -0.32501232462315
C            2.74694060049527        0.07237414113713       -0.11534496116919
C            3.09627797534800       -1.30631115637494       -0.26593132196982
N            4.31408474330095       -1.72872782847614       -0.62720880973659
H            4.50893075461489       -2.70905314059094       -0.72711851380711
H            5.04207343186507       -1.05863876802581       -0.80882102845879
C            1.97920996260167       -2.10197193592604        0.00846194781814
C            0.90467963983348       -1.28811063192622        0.35161168701816
N           -0.27747457699902       -1.74657747101877        0.63401011906787
C           -1.51675356301178       -1.32061377681831        0.60289796160972
N           -2.40992143945100       -2.14810884448997        1.19571567540055
H           -3.38665066649058       -1.91183235512622        1.19231039217198
H           -2.08051346595648       -2.97055990649373        1.66922713392563
C           -2.04510082470793       -0.20843849510119       -0.10649528004731
C           -3.32804806819308       -0.13872440018809       -0.68829084527339
N           -3.63148435155865        1.09890737701160       -1.09892887597366
C           -2.60797609952776        1.87971443460228       -0.74006412511075
C           -1.56823019536839        1.16029848905335       -0.14656025635345
C           -0.43334804217562        1.72632446327956        0.50030292063565
N            0.79091776453871        1.26864480309572        0.49833561046250
C            1.40563351671956        0.15122143681851        0.27866273650537
N           -0.59571045058189        2.93194405534428        1.09617183044851
H            0.22636957882854        3.43830824610640        1.38048352597419
H           -1.45461849423788        3.43229947279880        0.95108162791498
H           -2.62413023249284        2.92810903067221       -0.98110481937973
N           -4.23708919172304       -1.17740615067920       -0.84259083538211
H           -4.98454580932955       -0.90580207282006       -1.46799473562704
H           -3.81871513987944       -2.05847058877094       -1.11166229127183
H            1.94870429684193       -3.17341421075425       -0.03865795967228
