32
 energy: -53.522096618015 gnorm: 0.000640286523 xtb: 6.6.1 (8d0f1dd)
N            5.58284699926530        0.37613362122146        0.51923459698301
C            4.45829353302724        0.32246975550457        0.27386760227138
C            3.09538540835123        0.24997246178172        0.00749324563394
C            2.27283816249606        1.29800433877896       -0.38314780642634
N            2.72172598752752        2.55789116155117       -0.66222616519904
H            3.65102930721860        2.77401735709859       -0.33785666573679
H            2.06738198780382        3.32154168771077       -0.63272025001581
C            0.91127756505183        0.81975937270820       -0.42690188051755
C           -0.10048986576342        1.72574912090855       -0.62202928940110
C           -1.48675822635274        1.73990979058193       -0.43503561185661
C           -2.41849918076418        0.80327363433101       -0.06440493088257
N           -3.67035386761362        1.25040873866131        0.19279284028722
C           -4.41968533405092        0.17696370789775        0.45038482557081
C           -3.68730990870845       -1.03154007037821        0.33273060810459
C           -2.38407742691246       -0.68263652729825        0.03270105402918
C           -1.39698368846894       -1.63290572270985       -0.24318697954938
C           -0.01803574471133       -1.64489777473736       -0.35619226150396
N            0.51111431277300       -2.89029042884947       -0.61788539345259
H           -0.12874390475106       -3.60556213214721       -0.92131439855779
H            1.44069231115574       -2.93326689852119       -1.00001474658680
C            0.96971686679476       -0.62874811429148       -0.15385252525679
C            2.29609959027268       -0.93288293752673        0.13135078855611
N            2.86429447252151       -2.14789093263849        0.47634203198001
H            2.26588508038170       -2.77002291253708        0.99961377168017
H            3.78968623233590       -2.05576745054651        0.87232261828265
H           -1.82867761191303       -2.62708840207709       -0.34519557955391
H           -4.08162306582357       -2.01985046874883        0.47427089842112
N           -5.72733974199122        0.29312751610247        0.74475385371458
H           -6.25047788019716       -0.50487986748984        1.05524820744882
H           -6.09952463512104        1.21537060855020        0.88583060678969
H           -1.93629986685569        2.72180719752158       -0.53621087921640
H            0.26391999922085        2.71075424548517       -0.89982718024029
