30
 energy: -55.676971819347 gnorm: 0.000793188328 xtb: 6.6.1 (8d0f1dd)
N            5.77073361114291        1.87029679661123       -0.25106341278469
C            4.68839410972115        1.51370783806984       -0.10285747424299
C            3.39238477361291        1.01460519004951        0.05724911501522
C            2.21412052806066        1.74615429830790        0.23791550094603
C            1.11848352356110        0.87942237144344        0.27130343639382
C            1.66190508076012       -0.49525037460111        0.20107725975496
C            1.05885482982695       -1.73312267030359        0.44778483954991
N            1.86825025036758       -2.75493168985083        0.81188071982221
H            1.46533364178414       -3.64738382780719        1.04182216047822
H            2.81168658490001       -2.56048726242766        1.10901110646023
C           -0.29404832046705       -2.14730673136284        0.25624066645215
C           -1.49331795546068       -1.57891505498557       -0.03388491383931
N           -2.49873328726051       -2.48127510205988       -0.31950386235514
C           -3.58272830490756       -1.80072881442665       -0.54781577816191
C           -3.39353509201058       -0.39028882076053       -0.38790296618320
C           -4.41367952169313        0.53821292309117       -0.61080527613009
N           -5.30849914764105        1.21881036895649       -0.84717887028958
C           -2.05012937765587       -0.20969641347977       -0.05926576218098
C           -1.46393666751460        1.02942704092869        0.26834678357294
C           -2.37745108782083        2.09900391308058        0.47693507842541
N           -3.04788572333158        3.00027664893183        0.70805653357724
C           -0.14816724114129        1.44521021920448        0.40741695461743
H           -0.08161140077855        2.51314571053703        0.60271364162431
H           -4.50405558663776       -2.28154531252679       -0.82485144793600
H           -0.39561382406552       -3.22983370160552        0.28072901290216
C            3.06654965715111       -0.35577608258489        0.04053708718902
N            4.00734747119776       -1.35965571324644       -0.10864473286747
H            4.92433013964536       -1.00109377823707       -0.34459914278401
H            3.73377726732417       -2.12950307728012       -0.70410575786306
H            2.15956200903670        2.81705408213502        0.29421533973825
