28
 energy: -51.432095577843 gnorm: 0.000979938688 xtb: 6.6.1 (8d0f1dd)
N           -4.21954245694171       -1.42250941765568        1.08022000722303
C           -3.52083502318852       -0.59802202089136        0.68966388362576
C           -2.70258798545703        0.46109316517983        0.28949013251262
C           -3.09756342085060        1.83512574652458        0.31566282104368
N           -2.13812580842953        2.63543555112078       -0.05263200807409
C           -1.01939214132840        1.87242853365130       -0.27689909426909
C            0.10117969982336        2.55182635812845       -0.67056092234360
C            1.46449916490526        2.21587051124142       -0.69014397395853
C            2.14201588073419        1.09497250094539       -0.29346515222118
C            3.54871251535585        1.19395808341017        0.03157697990027
N            4.01664092852875        0.10435823992711        0.55749641577521
C            3.00110814080289       -0.82176194665187        0.52297433511935
N            3.27080674030279       -2.08734027395395        0.97190425773817
H            4.15103984365506       -2.14579253734495        1.46290238978084
H            2.51440910415715       -2.59192945159197        1.40881361560139
C            1.81398691110801       -0.28933258105526        0.01538199056184
C            0.69764787414291       -1.09398893268639       -0.37466932116648
N            1.00478933812018       -2.37410562737479       -0.68203910546104
H            1.96749345876016       -2.65405345992960       -0.75970173936948
H            0.27952280298726       -3.00857886158764       -0.97728021802629
C           -0.66487385270870       -0.74899030865457       -0.40330555881350
C           -1.52388271138031       -1.80135807430397       -0.79675504173273
N           -2.16157601117219       -2.67047308366670       -1.19803756088443
C           -1.35545571859148        0.44423907382689       -0.07267324728032
H            4.14587354324235        2.08355109380579       -0.04458081352447
H            2.11251425363864        3.04943312189699       -0.94093536425087
H           -0.11159181824236        3.59386395517935       -0.88171568661549
H           -4.06294165437363        2.20731316891083        0.60897585320943
