30
 energy: -50.068677092724 gnorm: 0.000592333847 xtb: 6.6.1 (8d0f1dd)
N           -3.04498543267308       -2.79880853854242        0.56395463966766
C           -2.28731758452725       -1.95786423658591        0.34939392013655
C           -1.34344894255016       -0.93798462041049        0.11102002864569
C           -0.01232439501422       -1.32074357298696        0.20497563945424
N            0.21943828104937       -2.64375317618613        0.49383295660916
H            1.12087779723498       -2.89469628785266        0.86152677428370
H           -0.56673780681681       -3.19989913062049        0.79264839189639
C            1.19129455152367       -0.57720599392008       -0.06451079318612
C            1.56833065526670        0.77242197105046        0.32874174445101
C            0.87938333330971        1.88692947712998        0.70281232357028
C           -0.46769940547488        2.29130902328104        0.56342805850562
C           -1.58244501091839        1.69517233421329        0.06232002775762
N           -2.64793156600795        2.53485798796796       -0.22538160236492
C           -3.60757651904521        1.78094291744726       -0.67709545370529
C           -3.27218429283813        0.39486305004537       -0.66907358959558
C           -1.97774450637466        0.30420072673654       -0.22084436014798
H           -3.91632535438401       -0.41035472576007       -0.96655844246033
H           -4.53757273892764        2.20790961710005       -1.01165445412924
H           -0.63485583027014        3.34124590516092        0.78016644448327
H            1.50420611617652        2.70110415414845        1.05608892141549
C            3.03235331609826        0.85188668340825        0.16293608942695
C            3.46567859111185       -0.30937197707869       -0.39776707538203
C            2.35451862292885       -1.20184224267126       -0.51383698217424
N            2.49859011700225       -2.47140121010808       -1.00483909126414
H            1.66538373726623       -2.93033445985346       -1.33788266185696
H            3.32946945806387       -2.63808273724716       -1.54953251287944
H            4.47000087082812       -0.54586815895635       -0.69689661747192
N            3.81211398122537        1.92448576312665        0.49583322878581
H            3.36819379578842        2.82132511424877        0.60245648213279
H            4.72225214534790        1.95420748251498        0.06569423649608
