27
 energy: -50.934779153052 gnorm: 0.000664365780 xtb: 6.6.1 (8d0f1dd)
N           -2.45731122823822       -3.21287204837077       -0.22216406212899
C           -1.76401649861248       -2.29747741356631       -0.16928946865098
C           -0.86959029841704       -1.19869715519874       -0.14338970904939
C           -1.55756785582017        0.00975229894301       -0.12569956460380
N           -2.86674037640332        0.03392223795130        0.11105580937729
C           -3.15950206745655        1.33377807529143        0.32707335036148
N           -2.13774655407481        2.20266405749436        0.21376294989989
C           -1.09816269728468        1.45939720132418       -0.15916645354411
N           -0.01590020025777        1.98852133402282       -0.62024075192675
C            1.21701936994516        1.63793499002941       -0.82539032648877
C            1.96792241337945        0.63868864487154       -0.22331316963423
C            3.37110638772718        0.74858477209242        0.00242942301425
N            3.87241900700142       -0.34629621141763        0.58989289741451
C            2.86803005339527       -1.21316041527024        0.69044082074886
C            1.63344789561126       -0.70972113847670        0.23625236287871
C            0.50933440083189       -1.53916114670209        0.02915459085317
N            0.74636153109119       -2.86935283117157        0.05497102640791
H            1.67820616940503       -3.21449013384141        0.19409685671870
H           -0.01971525274721       -3.52178778436795        0.01646191354998
H            3.06462498558027       -2.16434479454680        1.15445083565845
N            4.17127670228128        1.80339370983585       -0.28436033367156
H            5.08274709009185        1.78972502595412        0.14098243036410
H            3.75974985103029        2.70070807528310       -0.46886807336688
H            1.75211954196801        2.34118881952922       -1.46279940283016
N           -4.38701138050050        1.72490582524338        0.64988326467117
H           -5.12582676593586        1.04488189751185        0.67542183258546
H           -4.56161838359127        2.69703042245168        0.83131650359184
