29
 energy: -50.370147068764 gnorm: 0.000425065981 xtb: 6.6.1 (8d0f1dd)
N            3.87209290925015        2.53786717191428        0.88230356702195
C            3.31140437086284        1.57123670719447        0.59894248204611
C            2.65304178935866        0.40141808438446        0.25409971634125
C            3.24934809044872       -0.73649813768845       -0.36498800796147
N            2.37070591233343       -1.71818113330465       -0.60104636379531
C            1.18765614676271       -1.31219197139978       -0.11932691887832
N            0.24200031405990       -2.16719822878275        0.07680020567991
C           -1.02388843921633       -2.15086616099256        0.37897972356484
C           -2.02686420888499       -1.23541466016644        0.09528530241543
C           -3.35892590926044       -1.66811695768159       -0.07580529076474
C           -4.13559560991359       -0.60499751082054       -0.47965321422143
C           -3.34027319664719        0.55198963383673       -0.49118555421070
N           -3.83216331417102        1.81622050270776       -0.80935100346295
H           -4.75703621017336        1.77367590906924       -1.21683350147657
H           -3.20486459893458        2.37966273839295       -1.36837980770953
C           -2.01888040473582        0.21905538982658       -0.10962700472582
C           -1.07753426491822        1.17279149121531        0.34140636936951
N           -1.55543994017567        2.43563374536037        0.53328518174871
H           -2.55135853134201        2.57036070136457        0.60444926569421
H           -0.95582500507912        3.11583924193829        0.96878985848724
C            0.31160299157127        1.07076848860194        0.57296008393597
C            1.27371401970617        0.11894465957339        0.33311110522681
H            0.74875270440871        2.02361226124390        0.86893797163200
H           -5.18056201891616       -0.63354705695192       -0.73171335634972
H           -3.68096930115947       -2.68823391328234        0.01998288656561
H           -1.36604607527909       -3.11156881072760        0.76269664363308
N            4.53582046501278       -0.85418633667257       -0.70778900752925
H            5.19884071421414       -0.14366836242020       -0.45283757031355
H            4.84452280551671       -1.70968903703205       -1.13438458046143
