28
 energy: -51.431560161039 gnorm: 0.000705668373 xtb: 6.6.1 (8d0f1dd)
N           -3.79142029621296       -3.07347470695221       -0.90423927951285
C           -3.36196979258124       -2.02941265325128       -0.68607713032169
C           -2.83311591231177       -0.76313784598018       -0.43895293925981
C           -3.49681235131532        0.45600885984535       -0.48734306171351
C           -2.62040765523911        1.49981827570138       -0.15161863546898
C           -1.35251850989319        0.98684977346431        0.08158890148690
C           -1.49976147998368       -0.51068161433525        0.02992916086444
N           -0.76379539188136       -1.43502188968535        0.50903002118218
C            0.46977056323610       -1.65707992402981        0.87686642699881
C            1.60151634441543       -1.10402168654037        0.32298169241643
C            2.84036310573484       -1.81358366915387        0.14005261201771
N            3.73789600310896       -1.07594605426616       -0.50606082853702
C            3.18202599947051        0.12935984633732       -0.69618895228092
C            1.86097359367998        0.22251415765250       -0.24422116635721
C            1.19731869269105        1.46441182929309       -0.05980461064460
N            1.99807578219514        2.55330089325847       -0.13205099917882
H            2.98855835926474        2.44334175115894       -0.24961101605971
H            1.61050680723147        3.48100819696803       -0.07797906153501
C           -0.18259273557261        1.76055069712801        0.15431937325156
C           -0.46408497754414        3.14017626065498        0.29956243689958
N           -0.67424368197547        4.26029114655414        0.45444850803479
H            3.76199209353655        0.87287443787401       -1.21440502478536
N            3.10995576392135       -3.08310818952281        0.51189735712012
H            3.93886192686574       -3.49665252180413        0.12037075869698
H            2.36531183927625       -3.69473407835840        0.79437166308915
H            0.57098848095772       -2.51222398483503        1.54043560702956
H           -2.88316011436382        2.54098554075365       -0.14965838687706
H           -4.53142088181094        0.58065338167035       -0.75392742345438
