33
 energy: -58.839932820986 gnorm: 0.000980842333 xtb: 6.6.1 (8d0f1dd)
N           -1.36349363966693       -4.72933571386437       -0.59548986222322
C           -1.56521627532900       -3.61678899259859       -0.38208832029114
C           -1.76313878407061       -2.25458083908623       -0.15653247142883
C           -2.89449107682023       -1.64726445448299        0.34050255143277
C           -2.66293643361012       -0.25176654356652        0.42383414078634
C           -3.60356182286824        0.65000831688079        0.93300742277468
N           -4.38916024907556        1.33662250074633        1.41455109534325
C           -1.34886878815798        0.03128424014200        0.01866325808413
C           -0.72345551761425       -1.25830177260444       -0.31369237367946
C            0.50804556399529       -1.63438895355718       -0.75650689569284
C            1.81799181397067       -1.08426818130360       -0.65277865477299
N            2.78544583168000       -1.88428348475482       -1.15315090428606
H            3.74679025929887       -1.58598055089750       -1.11445531747537
H            2.55525280756170       -2.76575744430533       -1.57799116001613
C            2.22838674847319        0.06190133015087        0.03707803633568
C            3.53623053486334        0.19127761595181        0.59710848895253
N            4.49719815700990       -0.82133662043671        0.69233682951969
H            4.12333569872256       -1.71271640602954        0.99546071269766
H            5.26732621149473       -0.54064846028611        1.28651394343660
C            3.69717202254086        1.48179701752277        1.06853998954898
C            2.54852819908470        2.21317131325443        0.75618960991226
C            1.59989788035838        1.37896877145853        0.16876296772354
C            0.37738282726008        1.91495583546388       -0.32315091494688
N            0.44324071610471        3.20201347729613       -0.73571043788485
H            1.32393163538086        3.68404754500115       -0.70956591967638
H           -0.39856056715879        3.72484950995624       -0.91678987015563
C           -0.91025873997065        1.33415750221013       -0.28965148601445
C           -1.96016433846432        2.23420591451030       -0.58921148987184
N           -2.75948880951331        2.98997554830004       -0.92329913272619
H            2.39839968808953        3.24182819345544        1.03041234715874
H            4.56053738876930        1.85874960629084        1.58517936566616
H            0.52859672758199       -2.65857402379146       -1.12512024331173
H           -3.80815035591667       -2.13671072102010        0.62541968988005
