36
 energy: -66.016496372685 gnorm: 0.000742114775 xtb: 6.6.1 (8d0f1dd)
N           -4.35533935512021       -3.27658056075708        0.02567099043010
C           -3.82960558670556       -2.25436331279487        0.10492898065045
C           -3.21840625494905       -1.01208518602611        0.19529657352739
C           -3.80771064214180        0.16854033419355        0.71724850871840
N           -2.96895709557037        1.21596162262291        0.64347995729836
C           -1.81132794062681        0.77835787783505        0.13811655870845
C           -1.89143606510389       -0.67503535894007       -0.15779416029191
C           -1.05151248908233       -1.55524462072656       -0.79969296377925
C            0.33861471608142       -1.62314053222930       -0.99264304757941
N            0.75003264275815       -2.72704742046359       -1.67580555331782
H            0.06428978753064       -3.32260398625929       -2.10662107814711
H            1.70386831631824       -2.78915766355726       -1.98833207977772
C            1.36239415231149       -0.82797425331460       -0.43052907673626
C            1.44110560257273        0.61957928080543       -0.19037705163647
C            0.53867387049473        1.67333460096993       -0.46321225022551
N            1.09981741511495        2.83342932427293       -0.87045062014353
H            2.08832496984076        2.87291339137103       -1.05239565810274
H            0.53852709249871        3.66378551648910       -0.96687651593818
C           -0.86036750411280        1.73646357385428       -0.20914896426041
C           -1.40051583016772        3.04527081695238       -0.19538147426034
N           -1.79059741151383        4.12626982851032       -0.22404197461558
C            2.75997263979254        0.89213444361226        0.22751368402768
C            3.47509469414972       -0.31926537685594        0.30187973648883
C            4.77319581913861       -0.46849590460251        0.78057607101191
N            5.83859817598201       -0.59534992289097        1.19863563770534
C            2.63778143470676       -1.35941918055112       -0.14568437421043
N            3.05798216641391       -2.67617081669749       -0.23690925938789
H            2.35530969061085       -3.36986918597736       -0.02145301229887
H            3.92861984359955       -2.84220111457852        0.25087615821743
N            3.31673201263098        2.11741685261002        0.56763510107463
H            4.19340326257229        2.01902507721750        1.06346725802030
H            2.69052918367921        2.76304844992704        1.02955631163301
H           -1.56453843282467       -2.45517102283430       -1.13272925803941
N           -5.03332097330463        0.29370090349075        1.23136836620963
H           -5.33109660410237        1.19856639063933        1.55137113805038
H           -5.66405843837190       -0.48808191321860        1.24728434387295
