31
 energy: -53.815184745253 gnorm: 0.000759811199 xtb: 6.6.1 (8d0f1dd)
N           -4.23151388510141       -1.92692494784759       -1.18009582758255
C           -3.52358420167949       -1.10781776949491       -0.78518439266078
C           -2.72809069961948       -0.06918045937387       -0.31846250075484
C           -3.19780052209239        1.27236103003764       -0.11626008776781
C           -2.16793550138016        2.03624243466775        0.41817364129848
C           -0.99903312557218        1.25931661073170        0.49130352251551
C           -1.40259765278090       -0.13905285083406        0.12193615554296
N           -0.80076812536015       -1.26633971088406        0.36616244607625
C            0.41183528700353       -1.69463771448554        0.56141278206324
N            0.50969682058377       -2.86030050393054        1.24280258915919
H           -0.33806539952651       -3.35834802688759        1.45546242082047
H            1.38354074938162       -3.35584525862297        1.24393085449524
C            1.61862172835786       -1.15624738143299        0.02390792049891
C            2.67150675327243       -1.92821969953069       -0.44748975434339
N            3.71731401107827       -1.18398192534750       -0.84831081969465
C            3.40250270449046        0.07729249374130       -0.58489546320832
N            4.31834345570148        1.09559612271684       -0.85073082850043
H            3.92554913439886        1.86038285544952       -1.38780804295914
H            5.12511253661379        0.70148015335341       -1.32130022409127
C            2.08741483332471        0.21577120089215       -0.04173307817113
C            1.57498052783649        1.41163797872210        0.49114322569753
N            2.48601905191990        2.40255228897805        0.69949107694878
H            2.20063739739645        3.24674792152934        1.16392726990008
H            3.46611698839318        2.16726754052994        0.67476583305942
C            0.23808374396674        1.80673840487666        0.73500198025037
H            0.17259013698618        2.85293387343958        1.02928527044625
H            2.69609717483867       -2.99518906336115       -0.58209930520240
H           -2.22884281083933        3.08358455654728        0.65031965589002
N           -4.44160546022843        1.67719622807349       -0.42487617300927
H           -5.10130976635175        1.01525237210631       -0.79519684534911
H           -4.75206208271444        2.60238910754239       -0.18933802556844
