28
 energy: -51.439730616437 gnorm: 0.000731562237 xtb: 6.6.1 (8d0f1dd)
N            2.79537294998690        3.41977054320625       -0.46490955924946
C            2.29837470427526        2.39531612390791       -0.33282553457564
C            1.59309722550555        1.16597334252475       -0.21440032725602
C            2.40723747629970        0.07614625314796        0.06941335567619
N            3.68722146111525        0.25728841714814        0.38506965486405
C            4.11706409510392       -0.87510433883782        0.96502761535037
C            3.14588407192483       -1.86051063709483        1.05278878045985
C            2.02542511799028       -1.35854706346886        0.37530595547501
N            1.01113544195394       -2.04776251562823       -0.02328222976105
C           -0.15462672655548       -1.90871198219640       -0.57947195936214
N           -0.53884124408564       -2.90795580914077       -1.40193670682237
H           -1.45914913636111       -2.91696787641772       -1.80037087631058
H            0.08954981152192       -3.67289850438580       -1.57696853352419
C           -1.12587369839439       -0.90482537759794       -0.26345614651834
C           -2.47953350679316       -1.14189502123580       -0.20529122085887
C           -3.16713436558779        0.07966971079724        0.02554614194771
C           -4.54505111909416        0.23325921607955        0.18247187904323
N           -5.67649235456619        0.38256371726051        0.32445812781129
C           -2.23090333109142        1.11265213907766        0.04807699018527
N           -2.52883933761670        2.42599445302350        0.19219427933076
H           -1.81052235280144        3.09236944053059        0.41362972557059
H           -3.47229645135446        2.66503956446411        0.44777058424295
C           -0.90986784652292        0.53833641333727       -0.11075201140615
C            0.19240466829020        1.34755458522807       -0.22565103608236
H           -0.05482949309571        2.40533434267329       -0.28386566337128
H           -2.96604260550902       -2.09832415904798       -0.26965408469275
H            3.25709511913510       -2.85040059613692        1.44591583382707
H            5.13622166532848       -0.93850778501923        1.30398747420660
