27
 energy: -46.926970751955 gnorm: 0.000830864970 xtb: 6.6.1 (8d0f1dd)
N            2.13376585926199        3.58426796526991       -0.04075710474150
C            1.52782595716744        2.60830830798171       -0.02468426448205
C            0.75280601929752        1.42093080974997       -0.00581421324462
C           -0.59990480516388        1.67532336752574        0.01324555515006
C           -1.76332892803348        0.89985425768765        0.02257719296184
C           -2.05327298574722       -0.54210195456426        0.01704793038664
C           -1.31160623932344       -1.68235939625542        0.03576397641156
C            0.06851758859460       -1.96138621981235        0.04983748984998
C            1.21832583889725       -1.22014398984627        0.02985626682605
N            2.37571727410761       -1.94467415609077        0.03381873625667
C            3.37797792476451       -1.08555595920686       -0.00144784697707
C            2.91737507955612        0.27668598742597       -0.02734411083883
C            1.54944571719443        0.23411460259372       -0.00552573784463
H            3.54797923014873        1.14411393281709       -0.05572526020062
N            4.65895397151334       -1.46958642653643       -0.01138096028614
H            5.39874599399381       -0.79173217579818       -0.03615210494382
H            4.87449234646519       -2.45050260705885        0.01487199856580
H            0.29842185593447       -3.02126167428026        0.07283161572841
H           -1.90405937218551       -2.59318520176306        0.04777075337250
C           -3.51371887162177       -0.57664186612479        0.01125007530648
N           -4.04559236878951        0.63186269194593        0.02535867184814
C           -3.01444810674889        1.50421434463783        0.03314168224829
H           -3.21696566070127        2.56014484525492        0.04010996428522
N           -4.29496771828888       -1.67833654991853        0.04456044739048
H           -3.92439184612781       -2.57397087136973       -0.21920773965889
H           -5.28016686765058       -1.52117468084169       -0.08324442813681
H           -0.83109345721688        2.73848476177792        0.01723770626695
