27
 energy: -46.927469686297 gnorm: 0.000536664590 xtb: 6.6.1 (8d0f1dd)
N            5.75149153223903        0.37864375105815       -0.68016229362754
C            4.62063447233799        0.39346046173827       -0.47217309349118
C            3.24547218667915        0.35361208748473       -0.23367646234362
C            2.36339984575974        1.41460100468887       -0.18211019017516
C            1.04892284950777        0.93197082055437        0.05854376100097
C            1.16160904939562       -0.52566483986813        0.18472714680361
C            0.20209986415202       -1.48095754826111        0.57422439630486
N           -1.06994057853668       -1.54867678477205        0.42017024972607
C           -2.07486948114162       -0.75045140614113        0.13966340710023
C           -3.30870808580378       -1.18769967457530       -0.29661748364575
C           -4.19113480686744       -0.08292052600245       -0.16695269270515
N           -3.57288716816735        1.02617552936538        0.25620126515117
C           -2.26647503270303        0.72589304050148        0.37291477386201
C           -1.35899035352043        1.76058975273901        0.42704973181142
C            0.02461706615987        1.83790251880207        0.25560676303218
H            0.37874679568399        2.86459195248145        0.22292523391053
H           -1.85623375205136        2.72232622355773        0.49091350723844
N           -5.50530169535134       -0.08296472536096       -0.42720394023338
H           -5.96735869082644       -0.91348502528597       -0.74837033411780
H           -6.03857931005550        0.74277223235754       -0.22062374690010
H           -3.57430156867143       -2.18162801889234       -0.59592008927694
H            0.61380216645320       -2.38826034453843        1.02064750158919
C            2.51154060009168       -0.85272647296353        0.02193399203718
N            3.09757100174275       -2.07685700329704        0.10282530768775
H            2.52154627535192       -2.89926774702881        0.06896441679165
H            4.04040023581827       -2.16547856184109       -0.23764840900398
H            2.62265794812041        2.44820131070067       -0.31961626562494
