32
 energy: -59.919559326805 gnorm: 0.000941023138 xtb: 6.6.1 (8d0f1dd)
N           -3.74194189294057       -4.04447029495121        0.20828096150281
C           -3.39625296036611       -2.95704810523014        0.07366888297606
C           -2.96048660960032       -1.63555995851457       -0.06486654986224
C           -3.63707911952202       -0.60789558523006       -0.66889743966685
C           -2.82684861075930        0.56617120594309       -0.59982329259165
C           -3.20173269511027        1.79409892731715       -1.15912734117105
N           -3.51045982123530        2.76715549467166       -1.68527663668158
C           -1.60799563826873        0.26123519497625        0.00291834292193
C           -1.64373021668121       -1.16777398713100        0.33304458118124
C           -0.75559100286036       -2.03855472580846        0.90069544169228
C            0.64518305387329       -2.02434245960668        1.03696682379462
C            1.61404461749397       -1.14084386652017        0.63652352619551
C            1.62946645621811        0.26865313513208        0.25954447142984
C            0.67876936212233        1.30369457191850        0.57908108570830
N            1.24111820166376        2.47459493211461        0.96981479605927
H            2.21577739962720        2.50746451188341        1.21013586170873
H            0.64960519489876        3.24520050900850        1.23750577063170
C           -0.70917371328809        1.27919291003186        0.44008877843891
C           -1.35886276098321        2.49357114144330        0.76163462010648
N           -1.84034450767867        3.47569119282600        1.11557170315055
C            2.90409975045869        0.55312339673114       -0.20853290918037
N            3.41181762535815        1.73133482520281       -0.67519971325066
H            4.28160758322614        1.67023503236620       -1.18269137729518
H            2.76183841763344        2.42253118191286       -1.01482887651162
C            3.71022906138673       -0.65181811861355       -0.11981177331132
C            5.03446157842724       -0.72397911684379       -0.56690354400754
N            6.11628665672752       -0.73324983259209       -0.95157034768683
C            2.95310009802624       -1.63554587509935        0.44925071357671
H            3.26011731767717       -2.64661092843837        0.63824035680362
H            1.04347575319877       -2.97189999099677        1.38449841585704
H           -1.19939701023614       -2.99402825168566        1.16633581468779
H           -4.60935396298808       -0.65669057131927       -1.12384449780424
