33
 energy: -63.659291217879 gnorm: 0.000582865348 xtb: 6.6.1 (8d0f1dd)
N           -6.12120468271154       -1.16121572363036       -1.33922801347011
C           -5.07837501860757       -0.90691658390505       -0.93033297747740
C           -3.81295759645790       -0.59835046709215       -0.41925143224325
C           -2.83818106732919       -1.52900619428211       -0.01811322875986
C           -1.68368076991894       -0.84205925242584        0.35058279245917
C           -1.97112764253201        0.57288555568679        0.22863561985707
C           -3.30223261792314        0.68243787233056       -0.20742712603296
H           -3.81798715991173        1.59303594954413       -0.45326915852285
C           -1.22138354964964        1.73042903626645        0.55395930092161
N           -1.92191086945996        2.77695633347874        1.02778591291398
H           -1.49382644400246        3.68598522196813        1.10959707153498
H           -2.91529361998515        2.68967729624216        1.15895922601000
C            0.14791655174594        1.96675763637733        0.26289685257322
C            0.54407656250380        3.32873443236117        0.31310581552053
N            0.81984332062738        4.43888865162600        0.40965762037312
C            1.15932910961323        1.14350026765852       -0.22696126889215
N            2.19426692107715        1.74620108591595       -0.83164249225744
C            3.11071765478507        0.81614635882097       -1.09933962785751
C            2.71583638003565       -0.46966796797112       -0.58924882426528
C            3.48629548537461       -1.61863695495923       -0.75773430098786
N            4.17767412409398       -2.50985480722806       -0.98047351729054
C            1.44323642282055       -0.30253027178260       -0.04528660946358
C            0.79017933722776       -1.28779226543912        0.72316421108771
C            1.66446369985008       -2.25127221487798        1.28015334586249
N            2.33950640019713       -3.01624301686637        1.80851028365804
C           -0.57723011138421       -1.53094941323453        0.93833628099862
N           -0.90227425429549       -2.61020104481098        1.67823016782044
H           -0.18880200899262       -3.24137540784822        2.00739553275006
H           -1.86937845430350       -2.85627876574058        1.79865543013340
N            4.23251034562856        1.08306247495028       -1.76012156864358
H            4.40057209189547        2.02379736389588       -2.07386123739838
H            4.90564689680926        0.35660204637418       -1.93682538531163
H           -2.95425352062128       -2.59598740350318       -0.07927075180033
