28
 energy: -51.432308420894 gnorm: 0.000829837018 xtb: 6.6.1 (8d0f1dd)
N           -3.71131454447786       -2.88055673733908        0.34760236485853
C           -2.82087027184620       -2.17269603114732        0.20638413001928
C           -1.66866195249212       -1.35062995331889        0.07431752677414
C           -0.45772005936252       -2.05491070912525        0.20341553085734
C            0.86835021269200       -1.73696468280476        0.05892630708836
C            1.79855603714144       -2.81099464176687       -0.07917665589779
C            3.04240827783668       -2.31260826969898       -0.33525241401906
C            2.98342879472675       -0.89597580556503       -0.27824520688865
N            4.09413929712758       -0.09939572901321       -0.47198556231249
H            4.87374493444952       -0.58733248630174       -0.88856075680953
H            3.92872838316929        0.80405448563680       -0.89181668179177
C            1.66446348239322       -0.49371002406249       -0.01036177330135
C            1.34746464731668        0.83739906162281        0.35928269045712
N            2.37240644001479        1.56262716660267        0.85869500162536
H            2.22501969956547        2.52193349177864        1.12957705214514
H            3.23455742037610        1.10769640321431        1.10650870186668
C            0.13598578240850        1.56169234462029        0.18383461139503
C            0.23882966099328        2.95723724182671        0.42158577382478
N            0.38293056225045        4.07315006585914        0.65332786494031
C           -1.14428715487076        1.22130306754442       -0.25086233754251
N           -1.98603398451054        2.21411623928782       -0.56837146262754
C           -3.16189618414892        1.62552042765163       -0.79159151308362
N           -3.20466804170733        0.31650700020034       -0.58972763509038
C           -1.94794024735279       -0.03594735814977       -0.26486027271576
H           -4.02216083921714        2.18178829723901       -1.11446242872637
H            3.93335417151860       -2.87603088659703       -0.54452070380546
H            1.52135804740703       -3.84797983694723       -0.05433060105186
H           -0.62259446930166       -3.11967855474887        0.34830937281249
