29
 energy: -55.171195105733 gnorm: 0.000742007098 xtb: 6.6.1 (8d0f1dd)
N           -3.73431018708415       -3.19141843028194       -0.47595916862597
C           -3.15947021882779       -2.20722813397922       -0.31531143763933
C           -2.52863613332726       -0.97967196480296       -0.15478751030746
C           -3.18069768616489        0.29360728919822       -0.26787354226011
N           -2.34441077338407        1.31063881933630       -0.05885924301034
C           -1.12133233530712        0.79622408257355        0.15704017652518
C           -1.21027407676605       -0.70558371956303        0.22721365561114
N           -0.38579232001274       -1.60022726018623        0.68077543859747
C            0.89020492096055       -1.74224094932106        0.83931756896235
C            1.95081271179462       -1.07562201687880        0.23220179157823
C            3.21220509144491       -1.68429696672337        0.00351838071448
N            4.09283851594227       -0.82809529023234       -0.54945035314643
C            3.48104163095850        0.34295522803224       -0.62481613284162
C            2.13498565978928        0.31364720379794       -0.18589583184824
C            1.38346649972808        1.48539334772805        0.00104133676167
N            2.07591997065765        2.64576589218283        0.00148806729448
H            1.59117244592625        3.52862327413738        0.00618978185413
H            3.07246956704265        2.63614700198113       -0.11532526588626
C           -0.04138519535314        1.66098639978268        0.12255239919912
C           -0.47610950038797        3.01108852690303        0.05005419709220
N           -0.77722105414008        4.11890806921744        0.01126884063102
H            4.01240469564513        1.16795914000452       -1.06712332347395
N            3.57439670271482       -2.96310989775579        0.25714472325056
H            4.44146237000962       -3.26515121170150       -0.15331989398645
H            2.86786133166390       -3.65778762816590        0.42008793752039
H            1.14341891351200       -2.61141826331757        1.44487250971194
N           -4.46820206017230        0.48350142132803       -0.54646044093327
H           -4.82847467619018        1.42213642647481       -0.56044699466529
H           -5.06909929067420       -0.29908778246889       -0.73994343007970
