31
 energy: -54.612031221013 gnorm: 0.000551325827 xtb: 6.6.1 (8d0f1dd)
N           -2.69525453175746       -3.67454698276601       -0.86198777087030
C           -2.45356833212492       -2.57147937207350       -0.63231491911653
C           -2.17111159927649       -1.23946823954426       -0.35446911526932
C           -3.10378912229306       -0.29942983626701        0.12825266311950
C           -2.44109315357265        0.94593875070191        0.31317690813265
C           -3.07900483392864        2.09933252659413        0.76190026579013
N           -3.66212100619059        3.01251503764934        1.15026803543505
C           -1.10187962860080        0.81535118028540       -0.10535418997246
N           -0.34713882524103        1.83823674170121       -0.36251497432722
C            0.90574209355415        2.06298206151831       -0.61975702703649
C            2.06727366530807        1.39734922779259       -0.24158124330103
C            3.27363974350057        2.10623607934634       -0.10439755033114
C            4.24904831847759        1.26488020456389        0.39615730735184
C            3.71057914176196       -0.01983165958079        0.51696400306570
N            4.43551795247324       -1.12363031056758        0.96098360322300
H            3.92894762002638       -1.72776703947083        1.59542543320333
H            5.33466288540821       -0.85874085570778        1.34192438822360
C            2.35206091466806       -0.00411190386002        0.09705377568930
C            1.64072115544420       -1.16598348646994       -0.25236971194868
N            2.35593041645818       -2.32321465972042       -0.29521286130792
H            1.91428692232399       -3.15454171631874       -0.64961522140506
H            3.36227260221768       -2.27068048740168       -0.32390525195326
C            0.25809519154963       -1.37338160269705       -0.51097554205016
C           -0.88506406527069       -0.62972135641771       -0.40361311864167
H            0.03960836091511       -2.42303401371313       -0.70311705179063
H            5.25974152196096        1.53515845837027        0.64393435385805
H            3.38495123780470        3.15709348585785       -0.29628943650774
H            1.06245798412482        3.04573095567672       -1.06217262445526
N           -4.39891550155246       -0.52785203732903        0.38012466673436
H           -4.80582725850969       -1.42330302249679        0.17177245892369
H           -4.98023916765759        0.21348741024275        0.73193878803581
