28
 energy: -50.653471348658 gnorm: 0.000711374248 xtb: 6.6.1 (8d0f1dd)
N           -4.40782003649716       -1.87430809301032        1.10147721609222
C           -3.80185995644003       -0.97739255535640        0.71093385902581
C           -3.07265980237540        0.11590223892800        0.25415665174101
C           -3.55555763217404        1.45257628645696        0.08118250603000
N           -2.65789515143863        2.27007187636364       -0.38892467267332
C           -1.48331302332979        1.55928402543307       -0.50185763714196
C           -1.75534812492583        0.12515649123863       -0.20757524973499
N           -1.04103922729839       -0.93932676081837       -0.47347389330270
C            0.18702142231476       -1.29623941965692       -0.59706580514104
N            0.38170964150069       -2.50766816246254       -1.19986389717599
H            1.29134828971110       -2.72071429223283       -1.57241325700356
H           -0.41862500526990       -2.89836227218113       -1.67141807440968
C            1.35990900059572       -0.65155679489107       -0.06717120469888
C            2.52902022752634       -1.31137466843837        0.31146508251015
N            3.56441259697880       -0.45114735339110        0.58006716793403
C            3.11375202169838        0.75281956133774        0.33270835108119
N            3.88679110647921        1.83851758930954        0.48188656790958
H            3.49740314795454        2.76289697028927        0.44522484144675
H            4.79466985285532        1.70797721064733        0.89256679175904
C            1.68979640225267        0.75199513796148       -0.07576695476373
C            1.04183495227954        1.91443589178880       -0.38625659599343
C           -0.31636308264492        2.25822728161457       -0.58477261180272
H           -0.48676187235889        3.32377486729495       -0.69666662929773
H            1.68543315627559        2.78836885679976       -0.41225158202100
N            2.74461735562702       -2.64501738845589        0.43803607298863
H            3.58159597384510       -2.88970286223559        0.94282366455720
H            1.94077405267604       -3.23588935654404        0.57838291481367
H           -4.55795133881339        1.78428633861824        0.29030546467872
