31
 energy: -59.423794172773 gnorm: 0.000935548943 xtb: 6.6.1 (8d0f1dd)
N            1.26802984897209        4.25082753103214        0.16450909921505
C            1.01225818134346        3.13287779877974        0.16828885832199
C            0.61256371006692        1.76965314879025        0.20105039492967
C            1.67099749541440        0.87402733440995        0.10956926085009
N            2.89356750112200        1.32668478836126       -0.18582171713524
C            3.64395621455317        0.26829617291473       -0.52486127164326
N            4.91137690140770        0.40846398857208       -0.90493545677931
H            5.44958101511994       -0.38911695678473       -1.19694989229634
H            5.31845463032914        1.32811581779018       -0.90303291277756
C            2.92625328939683       -0.96463882204408       -0.42394220705521
C            3.45927904287293       -2.22246994058644       -0.68069335325655
N            3.94320741040730       -3.24092006120314       -0.90946141472718
C            1.66440073083365       -0.63000737212405        0.08403920929575
N            0.82218902016538       -1.47230789313581        0.59267880616009
C           -0.41153716522925       -1.54252835234223        0.99021065610447
N           -0.65629029859902       -2.45936406323650        1.94946059806524
H            0.09965754177318       -3.03992897903597        2.27088619121013
H           -1.59687420697867       -2.66622375123852        2.23180342650379
C           -1.54474960579516       -0.86316957918866        0.43133623553246
C           -2.79298793902453       -1.43091331856974        0.31894979902771
C           -3.71994979656567       -0.46152749432031       -0.14897949074172
C           -5.07151056017178       -0.67309402535914       -0.42448791545876
N           -6.18668532127842       -0.81910483170281       -0.66464491886590
C           -3.05299822457545        0.75606863385526       -0.27298468234117
N           -3.62928295300504        1.92089411649719       -0.64751263288790
H           -3.06997672431583        2.71390812313870       -0.90565337047669
H           -4.57451116811713        1.88911951519883       -0.99051207299360
C           -1.65629519203788        0.55034219663979        0.06464951240456
C           -0.78799827246066        1.60951477779411        0.11068822061098
H           -1.27403273148404        2.57462770488785       -0.01482429132678
H           -3.04777792654030       -2.45965939928707        0.50031765763010
