29
 energy: -55.967707818704 gnorm: 0.000864601921 xtb: 6.6.1 (8d0f1dd)
N           -5.85767015612259       -0.92927483193105       -1.01702963528156
C           -4.77680005824962       -0.72102863819903       -0.69011469044272
C           -3.46358336559337       -0.46344568654104       -0.27967916791467
C           -2.58724990509054       -1.40042431093543        0.31423715431055
C           -1.37323051179679       -0.78018156806478        0.53773648675854
C           -0.27239797658073       -1.42344368082534        1.20397250857196
N            0.94268501258633       -1.43873914978643        0.75292362149849
C            1.73960169303153       -0.68757649763410        0.06776054613458
C            2.94404153184072       -1.10671172717976       -0.53502670759206
C            3.38139119028596       -2.42195762985621       -0.69763479916439
N            3.73826237833059       -3.50540978752840       -0.83198484758490
C            3.64679616222765        0.07203037498779       -0.84097591811331
N            2.98008185122171        1.17899195387737       -0.53644733233530
C            1.78137872320159        0.81125085406427       -0.05504876310095
C            0.80623276332416        1.77457635069212        0.14225442805182
C            1.33913720913694        3.08937933611620        0.03101744473177
N            1.72056405436643        4.17055826631604       -0.01298606676446
C           -0.62161630235539        1.71776437501327        0.26199585122163
N           -1.22652828424167        2.91342267394626        0.40492072530659
H           -0.69567062093338        3.76891988232424        0.35556131111014
H           -2.22980353278561        2.96279269411653        0.43838779732246
C           -1.48616840264013        0.60595220209134        0.11807036178203
C           -2.81069740630877        0.76215641772114       -0.34665595453474
H           -3.23248106315504        1.64648128756993       -0.78905346147363
H            4.63064931035977        0.13349491084355       -1.27105900937020
N           -0.54238767227497       -2.20010945850247        2.26669039597260
H            0.18751865043772       -2.77529973574809        2.65359871030817
H           -1.49510058793474       -2.35314234855265        2.54693062160370
H           -2.82142737648784       -2.43164347249505        0.50379723458746
