21
 energy: -39.795135288159 gnorm: 0.000516030657 xtb: 6.6.1 (8d0f1dd)
N            3.47314679787699        1.69230083655752        0.25917980240677
C            2.79321395216752        0.54198664587514        0.17769850555721
N            3.43141282288602       -0.63802626260695        0.32089730653102
C            2.50612566407229       -1.57967422786639        0.19912466748798
C            1.20480665307660       -1.06804019999755        0.02223900461579
C            1.38585770100184        0.37383302076683       -0.01345010129319
C            0.53952370305822        1.38878972323309       -0.45596188192689
N           -0.74782742506351        1.48877417989192       -0.37740421194077
C           -1.83831902130697        0.84441515852129       -0.24977537827643
N           -2.97731297676484        1.37142549803265        0.19609297258443
C           -3.78700607882669        0.35136577647516        0.44956135666733
N           -3.25869622899387       -0.86363815657211        0.34380061956004
C           -2.03798915111303       -0.69976752866201       -0.15842369875658
N           -1.15142778313334       -1.60974306801354       -0.23253509392589
C            0.10766202668811       -1.86383292971680       -0.32870370297948
H            0.32933124604833       -2.88135597549781       -0.63981789722942
H           -4.81095229438518        0.49873987002395        0.74011642256253
H            1.01038093386799        2.29185003663008       -0.84031581813387
H            2.78060573102147       -2.61761567326820        0.25548816842109
H            4.46438152358751        1.64833184925403        0.41648317462958
H            3.01988872013453        2.58130152823967        0.15439426463874
