33
 energy: -62.845980564242 gnorm: 0.000989356019 xtb: 6.6.1 (8d0f1dd)
N            5.40660858341912        0.90622277279817        0.40366220302223
C            4.47902086715086        0.22862443717733        0.43176538468486
C            3.38368377521119       -0.63131544516827        0.52797731010438
C            3.36632421231780       -1.81123790543353        1.31327278399451
N            2.20721080162948       -2.44058748407569        1.30957784435431
C            1.38860882322552       -1.72565700098964        0.51030955775544
N            0.33291810643162       -2.24816729590484        0.00883981645851
C           -0.75913073314184       -1.87599499930049       -0.61356590722051
N           -1.31157082322610       -2.81444454986642       -1.41587301748490
H           -0.77898547357411       -3.64503007618783       -1.61407312354575
H           -2.09001008463614       -2.57281306270265       -2.00376043675274
C           -1.50005121276759       -0.71502216006335       -0.29702199547852
C           -1.00702133714108        0.65941377217416       -0.11056931649846
C           -2.15364866074376        1.43825877321409        0.20454308018332
C           -3.28842664093079        0.61012648098015        0.20382390073619
C           -4.58504392259375        1.00938426875650        0.51956213464372
N           -5.65151101722329        1.33780154436220        0.80154279190916
C           -2.89188226919386       -0.70265406132368       -0.14992719807048
N           -3.75890297528304       -1.75706924477083       -0.29543265102049
H           -3.37508100160947       -2.67506334177151       -0.12847142161607
H           -4.66795692704755       -1.61176452765396        0.12014859121314
N           -2.20895680385934        2.79279504839835        0.46906351188071
H           -1.42474574052694        3.17351235931485        0.97981845264066
H           -3.10104169819272        3.08758942096430        0.84340920932766
C            0.21228542952915        1.23392513352711       -0.51108061637846
N            0.18163439202927        2.55606777354291       -0.81744641185276
H            1.02135153529523        3.01115489581625       -1.13792820041198
H           -0.70508943357054        2.99838197556465       -0.99449473573808
C            1.53644956352918        0.66390817843018       -0.56337173230976
C            2.50185380005256        1.47690600707351       -1.20124098510763
N            3.23615177590509        2.11442513854438       -1.81499664069362
C            2.06501234661624       -0.45290870895130        0.07462551423693
H            4.19421034432039       -2.18880802447912        1.88748690793445
