25
 energy: -42.673218424650 gnorm: 0.000822634788 xtb: 6.6.1 (8d0f1dd)
N           -3.40442244091167       -2.06438183539770        0.04240907547557
C           -2.76522776507515       -0.86521571782014       -0.16044618741459
C           -3.36067825746079        0.29299543685950       -0.65888203489197
C           -2.42103870413797        1.31746586572816       -0.62916104436511
C           -1.18757912505576        0.81989603989941       -0.19002841639418
C           -0.09100767072047        1.65383638121551        0.16088594952917
N            1.19135359166067        1.41966316469793        0.02253504819355
C            2.03912562683261        0.45841241376228        0.01060883341059
N            3.28143256830428        0.61476853978629       -0.44097294158624
C            3.84655084274043       -0.59520577481503       -0.50624408122996
C            2.99121248554345       -1.63279754612494       -0.16353083504920
C            1.80221989408404       -1.03830826777598        0.27778044030228
N            0.73347365585514       -1.66721640401036        0.62207364464542
C           -0.54654203900977       -1.50797015226609        0.73869732044599
C           -1.39646188064110       -0.59051752840642        0.11701261013550
H           -1.02352980809393       -2.32069520897804        1.28572472086585
H            3.21444363302505       -2.68086544846544       -0.14058386440627
H            4.87821465538651       -0.68005717645079       -0.80160912411939
N           -0.37383602065494        2.91891088557097        0.56507154428522
H           -1.32185067353706        3.24847503987407        0.54248629869241
H            0.38111088234018        3.58122346622355        0.62055822165658
H           -2.60738729151916        2.32567769475604       -0.95596745529412
H           -4.38672047909615        0.38611873137044       -0.96379813493231
H           -4.26572650595214       -2.18846427632235       -0.46534740963885
H           -2.82771782390685       -2.88799654041091        0.08926268118408
