31
 energy: -54.587378596745 gnorm: 0.000595555308 xtb: 6.6.1 (8d0f1dd)
N            4.93595539321980        0.54209086574194       -0.06803774335636
C            3.97829966045812       -0.09477601693697       -0.03104687449293
C            2.87130468427072       -0.93573748747939        0.08590099631017
C            2.98067612828817       -2.26242312219977        0.64195716222992
C            1.75063861022692       -2.82566295351210        0.74590656958977
C            0.79446675520229       -1.91492843615007        0.18186009927077
N           -0.36497300811867       -2.30559084676364       -0.18359905325656
C           -1.48723082379504       -1.77608696705032       -0.62859618712965
C           -2.07577595872884       -0.59935890474471       -0.24810905220411
C           -3.50651752105273       -0.45579671645150       -0.13461114317568
C           -3.77152862772799        0.72671961050279        0.52243721422264
C           -2.55968940546195        1.41533384856110        0.74083853422978
N           -2.51047015846120        2.65689875743763        1.33156720532177
H           -1.65636600044247        2.88600729931037        1.81764758072051
H           -3.34817659692436        2.91556913759363        1.83083128272219
C           -1.47820334113133        0.65428991245082        0.24918945854007
C           -0.24183710550264        1.22533782298636       -0.13075591769058
N           -0.20431081384529        2.59178890718986       -0.13957263216070
H            0.62560952337132        3.03778834742477       -0.49859097512444
H           -1.07130032198689        3.09443242132041       -0.23134371662961
C            1.00205086366486        0.61213896964902       -0.46839952542216
C            1.92893945273977        1.48007942122356       -1.08479000570581
N            2.59947548448269        2.19460671115765       -1.68954545004694
C            1.52846707171275       -0.65071979818747       -0.13363442185074
H           -4.74246096441865        1.09025148181925        0.80546326780635
N           -4.43614948015632       -1.35579047406859       -0.56392179352265
H           -4.13192002156508       -2.28588532921119       -0.79354335005890
H           -5.35674308841293       -1.28547122865821       -0.16371635014351
H           -2.08641246089692       -2.49949084701875       -1.17780707589435
H            1.50447889915033       -3.80787031714705        1.09859627405323
H            3.91838475864324       -2.70010116578958        0.93527225114804
