28
 energy: -51.442668010968 gnorm: 0.000875773839 xtb: 6.6.1 (8d0f1dd)
N            2.73809016880602        3.47798702160288        0.61323363133070
C            2.22047656024966        2.47155793770923        0.42235156828802
C            1.54633615845569        1.23966113477066        0.21695503500767
C            2.39218776124002        0.17777901771244       -0.11861365984172
C            2.03997333482706       -1.25891717149737       -0.44579907130389
N            1.05490156826711       -1.95482999534386       -0.01994415372079
C           -0.10533787871431       -1.85464342959653        0.56666660209947
N           -0.41324784140126       -2.84036894478939        1.43098429809905
H            0.24398712248020       -3.58813240841868        1.57473900412592
H           -1.33119152820775       -2.89545981102478        1.83318052785035
C           -1.11141714411680       -0.89889438965479        0.24471094829298
C           -2.46310652511879       -1.17275013339964        0.21673302781496
C           -3.17867888294248        0.02232551171330       -0.03642984888155
C           -4.56146712303455        0.14489870930585       -0.17719076046111
N           -5.69725370011209        0.27076208296941       -0.30569034784484
C           -2.26402089756270        1.08001346376330       -0.10213867212854
N           -2.60129248586589        2.38424486413768       -0.26950885633219
H           -3.55484863081928        2.58394129994626       -0.52214873916695
H           -1.90715245722024        3.04984572063933       -0.56055378230697
C           -0.93629434015470        0.54717348782634        0.05717618372906
C            0.14753243123210        1.38709869806480        0.19939875783407
H           -0.13385322644490        2.43541147599523        0.27645344920336
H           -2.92151192274494       -2.14046443358378        0.30991968972580
N            3.05719025572336       -1.83309259847861       -1.11478886787892
C            4.04596627294958       -0.94572738662430       -1.11531123790332
C            3.72245613515001        0.27517983924189       -0.50337001940530
H            4.36102036705075        1.13229275373453       -0.41843508263386
H            4.98844006052811       -1.20113053612060       -1.56816807599174
