31
 energy: -54.602374182551 gnorm: 0.000535616952 xtb: 6.6.1 (8d0f1dd)
N           -5.39303271734352       -1.27457293535576       -0.88620411846854
C           -4.30263730690148       -1.04150501174276       -0.60215210628748
C           -2.99100547027269       -0.71425116601962       -0.26221797907639
C           -1.87065972911751       -1.55789935325461       -0.31692816104410
C           -0.72737899020413       -0.83881604194324        0.03729130620395
C           -1.17877090585971        0.50727047624625        0.37311023177306
C           -0.40579715763742        1.59008389690442        0.86187433302064
N            0.68615506563788        2.02755001251762        0.29029563370400
C            1.69301647640901        1.58567709043304       -0.37528617314722
C            2.56038231881782        2.42562737693348       -1.11204509038298
C            3.70951027493628        1.71961910853858       -1.37484879455759
C            3.60771936611163        0.40337103892947       -0.86140642710415
C            2.35963484888858        0.23174708726037       -0.30480515586385
C            1.84150367508012       -0.99480854790704        0.15970917940314
C            2.85193272716041       -1.96220381417950        0.36663854211285
N            3.66519135184697       -2.74893634933549        0.57362122545325
C            0.51929773418679       -1.48584553089679        0.28252094128325
N            0.41350761280169       -2.79836435451443        0.61564537603641
H            1.23009101855835       -3.38574816567914        0.64942459323264
H           -0.49481808462813       -3.21956355045212        0.68641218193494
H            4.36436121460362       -0.35273702130848       -0.95407438984383
H            4.56933873378086        2.09757371439707       -1.89962580010524
H            2.35322398171726        3.44896856210092       -1.35446809255874
N           -0.93507684225998        2.39270050719988        1.81219538912177
H           -1.76517818442133        2.10526905195250        2.29959171820983
H           -0.40010036220113        3.17489547017076        2.14825045081002
C           -2.57271361100377        0.54664208374622        0.21379974337139
N           -3.41329918921501        1.61390189649162        0.47826432907424
H           -3.00445005769532        2.52782892968877        0.34468138439106
H           -4.32208801590168        1.52441583206098        0.04462729989126
H           -1.91009652307621       -2.57432670968291       -0.66524375598861
