28
 energy: -46.651710650593 gnorm: 0.000922737177 xtb: 6.6.1 (8d0f1dd)
N            4.32938914321263        2.25991670255272        0.10441947933266
C            3.56285501386361        1.40049180205707        0.06697493333676
C            2.68891146262799        0.32285288161630        0.02401596905113
C            3.09325584234619       -1.04695376617757       -0.00552610753094
N            2.04678294689317       -1.87034673118814       -0.04118001433233
C            0.92508030454051       -1.11593537282571       -0.03571333742764
C           -0.26599042951933       -1.81210753545787       -0.05799906455003
C           -1.61918537683679       -1.47489176992805       -0.04697604253971
C           -2.35285922321807       -0.31372287219027       -0.02199745835301
C           -1.98637568786979        1.13151813218977       -0.02627435307739
C           -3.19557868110671        1.83682650216378       -0.03944757010931
C           -4.26975261026904        0.95644732900547       -0.03138961661413
C           -3.78147986424886       -0.34940759301279       -0.01253313992524
N           -4.57599420040228       -1.46708575806311       -0.05593473425649
H           -4.19088658350127       -2.33252411774554        0.28510849215020
H           -5.54338117614359       -1.31901451793973        0.18134607806074
H           -5.31020217961974        1.22820353897082       -0.03577156268490
H           -3.27491743364787        2.90876339195795       -0.04713335588801
C           -0.78919128111000        1.82878868560785       -0.01519914377697
C            0.55819891760930        1.50890562293014        0.00672328572754
C            1.28260893685385        0.32434774657141        0.00212124413639
H            1.20797286588910        2.37967731000758        0.02689935059805
H           -0.95765914714105        2.90242768603079       -0.01872736725104
H           -2.24343484287130       -2.36410432170745       -0.07140451566629
H           -0.07706428380690       -2.87988956126487       -0.08281753164532
N            4.35508262088085       -1.49168198056135       -0.00083878741335
H            5.12219836412072       -0.84391869124291        0.03048469578503
H            4.52414291997527       -2.48124229735497       -0.02361269203612
