29
 energy: -50.368434902920 gnorm: 0.000707028808 xtb: 6.6.1 (8d0f1dd)
N            5.69715063460730       -0.00115041773970        0.71433301159597
C            4.57852338371298       -0.06208160347861        0.45051366842444
C            3.22051955065965       -0.09587570414814        0.13710378979255
C            2.36579020234193       -1.19040428979012        0.23163506145266
C            1.05627276893797       -0.80360073709300       -0.11557886781702
C            1.12779995229282        0.61545844521547       -0.46729816804132
C            0.16016285457153        1.50440438142974       -0.97906655158294
N           -1.09581353330806        1.65260623963487       -0.75337274417204
C           -2.05580155243325        0.93676936629841       -0.20196349304484
C           -3.23166984502486        1.46120976807613        0.28478821972258
C           -4.10631400803543        0.35593612246896        0.48907590111746
N           -3.54128726420749       -0.81477358134387        0.19466793537262
C           -2.25659112338229       -0.55095433210093       -0.14326568866390
C           -1.38677356272913       -1.60052193919973       -0.23214602224991
C            0.02180601143875       -1.75095559023921       -0.25794941953883
N            0.40942460433423       -3.05011570714735       -0.34337275482538
H            1.38187387307610       -3.29502002003046       -0.36351687311182
H           -0.27560087537583       -3.78447314407158       -0.32988453057844
H           -1.91197530191205       -2.54731508684822       -0.14100670045181
N           -5.37426606969115        0.42859610587688        0.91863266707402
H           -5.91406673500360       -0.41526612817324        0.98102524258462
H           -5.78333576210197        1.30939786183497        1.16912474424131
H           -3.47454258928665        2.49559636539092        0.42210871521099
H            0.56376259485357        2.30674368422905       -1.59943371631010
C            2.46932039144931        1.01044800998142       -0.34240547562954
N            3.01479318041204        2.23188652750000       -0.62820629909506
H            3.93137430556025        2.40921396054151       -0.24946320337919
H            2.40057249268932        3.02705942375871       -0.66893391174767
H            2.68043593845227       -2.15058834833473        0.60036001075110
