25
 energy: -44.270049593237 gnorm: 0.000630242103 xtb: 6.6.1 (8d0f1dd)
N           -5.85656294877262       -0.28374995019227       -0.49781658986738
C           -4.72449991511856       -0.15572220884136       -0.35712873684251
C           -3.34144399460046        0.00221041253347       -0.19095398305343
C           -2.38257042964686       -1.01366509000871       -0.30809484551559
C           -1.10842691169656       -0.47808951044115       -0.07738230223084
C           -1.31746389258067        0.95294101323438        0.22043666426344
C           -0.39215840037163        1.92907881240705        0.58365821307092
N            0.84599450623077        2.04714112360042        0.22484335776296
C            1.89438162230686        1.37132298788524       -0.05884346949354
C            3.09405704853281        1.97518049394336       -0.52124030012689
C            4.11641517779538        1.07265237524949       -0.36544997381387
C            3.60715583971264       -0.16672247889256        0.09554128568662
C            2.23676163501734       -0.07349348200351        0.22518690468893
C            1.36175275461147       -1.17614688561957        0.25164696978096
C            2.02978222155897       -2.43000273850540        0.34490125344311
N            2.53707828652926       -3.45306511250650        0.44582524399479
C           -0.00944909260851       -1.32664748372444        0.05540564474206
H           -0.29793009284549       -2.37226058037152       -0.02896005606169
H            4.19613335974427       -1.04799213592167        0.26851013951427
H            5.15533374426302        1.26250785261352       -0.56766751452111
H            3.16929021024666        2.99848009006052       -0.83263883594847
H           -0.78102434019384        2.80653354285157        1.09601752463896
C           -2.69215946745973        1.19308834616531        0.16532540160900
H           -3.16948252702623        2.14017623664151        0.33410741802314
H           -2.59462981262857       -2.04216648235671       -0.53454483404508
