28
 energy: -46.645289358884 gnorm: 0.000491974985 xtb: 6.6.1 (8d0f1dd)
N            4.36977865945196        2.05819413587082       -0.57267397668547
C            3.59838642326412        1.21911820766117       -0.39861283351755
C            2.70651146430733        0.17634702496891       -0.18606636155638
C            3.07939110854571       -1.12115372657149        0.23226140151610
C            1.91834068838007       -1.91043939798693        0.34544809720069
C            0.81054805039486       -1.16347267551590       -0.02767713659727
N           -0.35034452664278       -1.73212194574845       -0.25641993834534
C           -1.58708301258278       -1.39297278789364       -0.39114509456227
C           -2.31925547189686       -0.26020498648411       -0.01171821575034
C           -1.90133130043246        1.14407640215377        0.11879517252855
C           -3.09778304456928        1.88479974929476        0.36542150273688
C           -4.16848075796755        1.03736102957109        0.41171335045863
C           -3.71209311242771       -0.28331855221976        0.15719984530222
N           -4.53945858450660       -1.36744664815244        0.06974827203739
H           -4.12826677738156       -2.28270779922483        0.14246966542832
H           -5.45613723432781       -1.27089424459472        0.47390377762670
H           -5.19603997266902        1.30562903747347        0.58026349804420
H           -3.12576521651526        2.95020880202183        0.50262822726332
C           -0.71779545353865        1.80973421891888       -0.08990603167190
C            0.62038650952926        1.43514800064558       -0.29180218891432
C            1.28791759369877        0.23577298971436       -0.26928839762271
H            1.29117379585803        2.28621400223970       -0.37836846831855
H           -0.83723415817219        2.88861904500700       -0.04414274920873
H           -2.18737888014605       -2.20844178719371       -0.80101763604985
H            1.89694261020976       -2.94695724526468        0.62290627386362
N            4.33755231543934       -1.51805048776432        0.48959309078454
H            4.52653570203417       -2.46781816852397        0.75415100494587
H            5.10597751526473       -0.89954612950593        0.29559418436048
