21
 energy: -39.804240362410 gnorm: 0.000385690783 xtb: 6.6.1 (8d0f1dd)
N            4.38307756258204        0.00046943681783       -0.79113290718876
C            3.12524777889366        0.00039531368749       -0.36461581147678
N            2.44193385984301       -1.14381132289373       -0.15692626503361
C            1.25939516901324       -0.76982035306558        0.30528403760953
N            0.28533534526235       -1.58819443450006        0.51145301576032
C           -0.99842340936512       -1.63762798945668        0.49382191669919
C           -1.92683969095846       -0.72621229674153       -0.04830429556538
C           -3.24086438156566       -1.06894610264773       -0.41458840606013
N           -3.99638211750824       -0.00050680243920       -0.66969810290943
C           -3.24114293302545        1.06816482191591       -0.41478981377372
C           -1.92701990058581        0.72584009583008       -0.04842079393745
C           -0.99882210658372        1.63766308178063        0.49335514491978
N            0.28495931319550        1.58860614313129        0.51091487787071
C            1.25920819985166        0.77039297353715        0.30501751997575
N            2.44167220845171        1.14450752748646       -0.15729170102665
H           -1.40900385613307        2.56647986123522        0.88362147717579
H           -3.64148879487063        2.06048513557172       -0.51770785936461
H           -3.64095948827378       -2.06138885861196       -0.51729977460732
H           -1.40837396732051       -2.56641351833490        0.88440167609283
H            4.85116691654833        0.87673401861790       -0.93912101054039
H            4.85137070454938       -0.87573675342030       -0.93882163141961
