23
 energy: -39.233795511027 gnorm: 0.000576967809 xtb: 6.6.1 (8d0f1dd)
N           -1.04032578023992       -2.54051397994225       -0.85008249787432
C           -0.62018776359088       -1.40682178743374       -0.25802418411806
N            0.63427520688655       -1.36720024976863        0.08661114266174
C            1.61868419862506       -0.55160754860269        0.21192045337226
N            2.76957752029595       -0.95727595252867        0.77094912735366
C            3.67894168733071       -0.02900171224515        0.47290480883759
C            3.17004994010162        1.05322017394994       -0.24808085583244
C            1.79994248056833        0.83170691221997       -0.38429587685916
C            0.87014265267139        1.80707091632358       -0.70946857758882
C           -0.50418537106980        1.90151565574666       -0.52160858427020
C           -1.48975365631801        1.03052134121603       -0.08188201581320
C           -2.81616315320759        1.47592138735335        0.19482799623118
N           -3.62733588662068        0.49272879498435        0.51627028601995
C           -2.91381282021123       -0.65122311716054        0.41189907688036
C           -1.59439556903428       -0.41690117649254        0.06145689571042
H           -3.37696968692297       -1.59467892360230        0.64047906311507
H           -3.15458108109411        2.49608400542053        0.19034240179744
H           -0.89207554903937        2.90059071141363       -0.70087167121790
H            1.33271304025829        2.73386466250894       -1.03742877310445
H            3.71846748870270        1.91551674751009       -0.57344143989852
H            4.69771716082539       -0.16505815820880        0.79376651415683
H           -2.02147112059061       -2.69338060235995       -1.00047141723768
H           -0.38884477542618       -3.29727641000183       -0.97444962262136
