27
 energy: -47.725521730316 gnorm: 0.000981961223 xtb: 6.6.1 (8d0f1dd)
N           -0.13042906332649       -4.18529621789817       -0.35547655736342
C           -0.27024868847257       -3.04786059656992       -0.29572288409734
C           -0.47682853148544       -1.64307821067848       -0.24440730034112
C           -1.80692094489231       -1.31638136258851        0.03739824092174
C           -2.54459883896298       -0.15080648517637        0.16784466785880
C           -2.28423438891809        1.25185848413119       -0.19490703275806
C           -1.12252748504481        1.85864570880290       -0.66880983440101
N            0.12206255103115        1.57690791013667       -0.45344093295808
C            0.89876000256608        0.58877106679172       -0.16378294600307
C            2.25869851204764        0.77870494821656        0.17251105615364
C            2.88893911806551        1.98374335567758        0.47471603552869
N            3.46116959748263        2.94531135118798        0.74157059055669
C            2.92382374320529       -0.46730884265295        0.06331183349611
C            1.97427772635551       -1.46199283197057       -0.26204616545378
C            0.71286430543811       -0.89548086449693       -0.31937234029835
H            2.20030937350045       -2.50594156389998       -0.37538300133251
N            4.23365027716134       -0.66073331264811        0.25192053362735
H            4.64034110729941       -1.56861455797775        0.11082565094094
H            4.82333259961628        0.11223082904606        0.51132005869848
H           -1.25674299410183        2.80595518208638       -1.18976457914084
C           -3.50072617974142        1.93256354749312       -0.07818031356144
C           -4.48076730811869        1.04778208591796        0.37430542585567
C           -3.91775599888721       -0.21114974620536        0.49645068248654
H           -4.43335724217379       -1.10857879621403        0.78670099250592
H           -5.50889290721226        1.29815654202730        0.56304851384866
H           -3.63837553280011        2.97900126629424       -0.27947986181084
H           -2.41170928442830       -2.20393765703106        0.21357784293837
