31
 energy: -59.410259363167 gnorm: 0.000608611127 xtb: 6.6.1 (8d0f1dd)
N           -0.44044653005904       -4.23190175626981        1.34224358598436
C           -0.41939315814037       -3.14541465084366        0.97601496721087
C           -0.49081139759423       -1.78665279535215        0.56579156615352
C           -1.81909194945611       -1.31798432931895        0.46288800605931
C           -2.36971540415131       -0.15665765926893        0.01436259234781
C           -1.89481506934259        1.19780170450297       -0.25060883577207
C           -3.00595354567776        1.86211386974216       -0.75265402913216
N           -4.10817428567549        1.08856364746260       -0.85439916068471
C           -3.78472577066966       -0.09045252947070       -0.35973466770932
N           -4.66424555858643       -1.10710776572483       -0.34464231321591
H           -4.48930989209282       -1.94637534540214        0.17778226198826
H           -5.60586155978000       -0.89810721633572       -0.62655153155571
H           -3.06386044008532        2.87370652674451       -1.11438890668911
C           -0.69182308156412        1.88249602123271        0.09259202568361
N           -0.84837895956856        3.20093100231976        0.33913644651719
H           -1.76454365988180        3.61107219738308        0.32558806480908
H           -0.04723112873460        3.79008348196979        0.50093466474159
C            0.63260076970376        1.40003460865507        0.13382567766057
C            1.59981662183235        2.39574832989025        0.40922406439083
N            2.33872640807697        3.22600839695505        0.70542373882759
C            1.21062056234516        0.12789620670319       -0.08028443933145
C            0.73381442108771       -1.25518725838324        0.19291901617945
N            1.75620701894549       -2.12961505750060        0.08838290940278
C            2.83371163643833       -1.45299799554191       -0.28274159252482
C            2.56012406487874       -0.03758206554804       -0.38149613964674
C            3.53090736765703        0.86605595333792       -0.80673292950783
N            4.39924759295444        1.50266311052228       -1.21184424187278
N            4.00534154160366       -2.03122256227060       -0.52976388344235
H            4.79642945186659       -1.47751650051425       -0.81207945860704
H            4.08787210291188       -3.02847891398852       -0.42942759085539
H           -2.53557956548927       -2.10148344621000        0.69660718178356
