32
 energy: -57.546726568226 gnorm: 0.000535546190 xtb: 6.6.1 (8d0f1dd)
N            4.33170486923972        2.18762459208821       -1.03796975906105
C            3.65417378118001        1.32511266067377       -0.68378635753544
C            2.89749419014805        0.23939240087678       -0.27010610777617
C            3.40556973862461       -1.10258596075349       -0.12017591083393
N            2.49439074912189       -1.95210780158417        0.32104824256677
C            1.32145281273304       -1.26268168413536        0.42327593070448
C            1.57164113365769        0.19033994990032        0.15982168007253
N            0.84821912444562        1.23445423252614        0.45299114418282
C           -0.40967001816781        1.51086897289790        0.62927256726131
N           -0.63814736837383        2.67670572680724        1.28611195407982
H           -1.57406265250613        2.93251637674549        1.54397582044879
H            0.14793952669789        3.15036290629339        1.69626983732057
C           -1.54805431115843        0.85460243504915        0.07394441194974
C           -2.70640003897721        1.51721285944205       -0.33465885726919
N           -3.68452699942720        0.66082001620674       -0.71940180606209
C           -3.22102951866381       -0.55766015785159       -0.50424260201570
N           -4.01408033465672       -1.65581621107471       -0.78481455776977
H           -3.53343061934201       -2.40711816639517       -1.26294903669180
H           -4.85443386332337       -1.36627506651568       -1.26951431954336
C           -1.87096245171779       -0.56347193944841       -0.00547699121253
C           -1.21707560120715       -1.71294633296192        0.43743134217550
N           -1.98907496158852       -2.83171993735158        0.60403333335346
H           -1.56381978196758       -3.63508397581390        1.03481623475363
H           -2.98090295308415       -2.70678588929369        0.73147059683620
C            0.17345491186448       -1.97226075129699        0.60897694124742
H            0.38629324626162       -3.02351293874511        0.78349811176326
N           -2.94002323579437        2.87569859048745       -0.38867149393471
H           -2.13349123076169        3.43857879486627       -0.61915663070769
H           -3.75293473276725        3.09213305568991       -0.94821129025056
N            4.66489871122165       -1.46692780456634       -0.39099467904403
H            4.94710005408230       -2.41640392228550       -0.22774068548731
H            5.31858286540814       -0.79424370748032       -0.75000681021940
