28
 energy: -47.431664822366 gnorm: 0.000765060374 xtb: 6.6.1 (8d0f1dd)
N           -3.28023492220838       -3.07593524227076        0.44813232121347
C           -2.44493167491613       -2.31639618094002        0.24430567784939
C           -1.36173149252643       -1.42129938972380        0.02433686727979
C           -0.16115709557892       -2.09687183502107       -0.12995969588383
C            1.17453124103656       -1.72995675857720       -0.27347001341481
C            2.13353427358122       -2.71348804971574       -0.55685545506213
C            3.40529776300628       -2.15980016789216       -0.48253736593451
C            3.28702481723187       -0.83787464212979       -0.08060423126315
C            1.92120621080794       -0.49879697973849        0.02728837485295
C            1.52365063096066        0.78987313928034        0.39654323460964
N            2.41724845889074        1.52793952735958        1.09443831621681
H            3.30350807461204        1.12445680212149        1.34107266212993
H            2.28322683228353        2.51678662023689        1.22645558962820
C            0.34281554679166        1.51356052781300       -0.01638005065834
C            0.61658957281753        2.90492358303220       -0.13436043397514
N            0.89212002503921        4.01580657554709       -0.22642912857822
C           -0.96187256248688        1.18043751432801       -0.30805079225652
C           -1.90964903507635        2.18798379226966       -0.64765125914003
C           -3.17027765359308        1.65311934262672       -0.59777018434861
C           -3.08078785648843        0.28401840516160       -0.26160848676422
C           -1.75313730288384       -0.07458135205931       -0.12828107148809
H           -3.91624972171753       -0.38506544062634       -0.17616890822561
H           -4.08748825006669        2.18017145105086       -0.78728389369735
H           -1.66273630026180        3.21020462899065       -0.86186137125248
H            4.11669048757639       -0.16086110417171        0.02065281727786
H            4.32875722698840       -2.66896731563771       -0.68897539411696
H            1.90419428112643       -3.73252034435448       -0.80743277255650
H           -0.29094404544653       -3.17623034485742       -0.16141237744092
