33
 energy: -57.245208530272 gnorm: 0.000620076776 xtb: 6.6.1 (8d0f1dd)
N           -2.62043205777857       -3.14035616806027       -0.76290249583764
C           -1.95188803644583       -2.23075591385681       -0.54192783844241
C           -1.07778902486037       -1.13670140893507       -0.33111759071711
C           -1.78343228382129        0.03077057174893       -0.08745629865068
N           -3.09418581170739       -0.04802777631110        0.18598728658195
C           -3.48665191775641        1.18518577988205        0.55245326499921
N           -4.75475809574968        1.40166714802526        0.92794861542847
H           -5.38698943970761        0.62114179308636        0.93668242343689
H           -5.04100361018901        2.29037556383835        1.29464970188891
C           -2.45053004762861        2.14180557723194        0.47185638146351
C           -1.34167749017309        1.46737816628700       -0.00392036792968
N           -0.27089022341925        2.03048845645167       -0.50208294279244
C            0.96296034118231        1.68997195419737       -0.72372653512363
N            1.64133686039038        2.56604761367386       -1.52969537872010
H            1.07913427067944        3.21614896831255       -2.05362156109755
H            2.51452589552508        2.26650192670963       -1.92781734128462
C            1.73757403830423        0.68998668738298       -0.06985909900075
C            3.07624382130703        0.87637898582143        0.28752491551010
C            3.57648142389444       -0.32195418577719        0.82920628292112
C            2.59879019379789       -1.28855416241563        0.73716057815360
N            2.76334972319363       -2.61391578311563        1.15880299865824
H            1.95794521478353       -2.98564297566267        1.64736030724159
H            3.60199800241503       -2.71960794369340        1.71560851166352
C            1.40525553746638       -0.71076660160108        0.18718631427689
C            0.31325796954047       -1.48998899866611       -0.21024555351321
N            0.55466465854269       -2.81910098894146       -0.37480230956566
H            1.50662432503908       -3.14146992564689       -0.41218235922711
H           -0.19324308943358       -3.43695481118515       -0.63881211862411
H            4.56514636879204       -0.45936419685161        1.22922168808737
N            3.82587810226496        2.03518825555193        0.15157344851672
H            3.28118387911476        2.88597359856872        0.13986098668606
H            4.61037917264368        2.08120430061652        0.78589458204760
H           -2.53434026751665        3.19055110063433        0.67351167696840
