27
 energy: -47.715431712239 gnorm: 0.000567288046 xtb: 6.6.1 (8d0f1dd)
N           -1.48842753608457       -3.25264446614971       -0.25777686610128
C           -0.94702530999704       -2.24292048511433       -0.20530473921680
C           -0.14032924395292       -1.07309220777704       -0.10531839211920
C            1.20975276807958       -1.44109832285204       -0.12168272409981
C            2.41566064488387       -0.77782671555098       -0.04895700094537
C            2.83090201952969        0.62296854917856        0.14879442286041
C            2.16034285661094        1.81448866605985        0.34993656568982
C            0.82633531500129        2.18315933993994        0.39701138642012
C           -0.40237445030483        1.55013274554584        0.23312974420565
C           -1.56279572722713        2.32736101599866        0.28891657648013
C           -2.68573984620465        1.53272021598961        0.06509084060854
C           -2.23502467604575        0.18322340145376       -0.12176704081334
C           -3.18141537098365       -0.80606195593255       -0.39961538815345
N           -4.10016221802431       -1.45676583892075       -0.63724515494377
C           -0.84035062117284        0.14079001259907       -0.01592326592523
N           -3.96710449560775        1.90913995916606        0.02169159890442
H           -4.22714356778246        2.87034042267398        0.15499011137470
H           -4.68038553890027        1.22244856809647       -0.16337020810790
H           -1.58459213350752        3.38706484197639        0.46203338487806
H            0.69355834164401        3.24496030022561        0.58277070093461
H            2.84141931923657        2.64793474606854        0.49739250488265
C            4.23847305553770        0.55871414881740        0.12821141068640
N            4.69815364839086       -0.67693924179675       -0.05767446173199
C            3.63848323839607       -1.47482032699389       -0.15652889129145
H            3.75881747996401       -2.53197234082632       -0.30939911404347
H            4.91720370429593        1.38458788871426        0.24221782067879
H            1.34032699962755       -2.51568003708894       -0.23331950771094
