28
 energy: -46.639397848130 gnorm: 0.000942533272 xtb: 6.6.1 (8d0f1dd)
N           -5.83390913160116       -0.46134413574809        0.11226406492597
C           -4.68939920961528       -0.43261507569084       -0.00335314010753
C           -3.30145071019286       -0.35159795186497       -0.11520660125780
C           -2.40288964892444       -1.41898085954903       -0.30292101870181
C           -1.10201557495942       -0.93213334333112       -0.30983569688336
C           -0.00501143716477       -1.78082571627907       -0.50299002511652
N            1.24038655443625       -1.68794907340498       -0.17562161055691
C            2.12563152678642       -0.76837297801675        0.09562104034845
C            3.36473818373590       -1.07883809093644        0.63671603100701
C            4.20985150039276        0.04126344317617        0.51184316528377
N            5.49452525745612        0.09804853666777        0.91255695780389
H            5.94674848752062       -0.72951337383948        1.25863928105324
H            6.06712230420059        0.88252203205929        0.65636313768743
C            3.48639330847975        1.10114164846509       -0.06579026878080
C            2.16974762447325        0.69967198236447       -0.26459564011020
C            1.14248949891137        1.60405969119132       -0.48447324251664
C           -0.24433385426694        1.53770804245462       -0.39291274271998
C           -1.17737343177120        0.53567726090226       -0.18737143085915
C           -2.56457862755497        0.84480499491369       -0.05945074468417
N           -3.12356031628355        2.08956977988860        0.04463266997147
H           -4.09734787004604        2.11199933028129        0.30385617709061
H           -2.56041404564259        2.83145200570193        0.42643086557559
H           -0.70377266166435        2.51856752769703       -0.48288135096095
H            1.51251659088454        2.61488207116109       -0.63450162098084
H            3.87731393019788        2.08367964948803       -0.25567057671765
H            3.64848189470440       -2.03963873885416        1.01965857548493
H           -0.26197872280769       -2.76874705313342       -0.88726542380622
H           -2.68538565178640       -2.45216727076523       -0.38643741987401
