33
 energy: -58.835219642949 gnorm: 0.000892572483 xtb: 6.6.1 (8d0f1dd)
N            5.62278998618055        0.93042760773100        0.76013525773047
C            4.51667192537168        0.80458503769939        0.47187659518913
C            3.17831989551929        0.60395343824921        0.13228988971690
C            2.23840408263190        1.57554371437770       -0.19386208776058
C            0.98156180492693        0.96031281677087       -0.35036765312525
C            1.18467074776936       -0.47529010175369       -0.19923126254298
C            2.54369959206063       -0.66698484248549        0.07528233865771
N            3.21645656794689       -1.86444838597828        0.25990282836169
H            4.12748317594148       -1.74971125213015        0.68312853991078
H            2.67916779387574       -2.60294651083254        0.69054586318727
C            0.32826596647499       -1.55355808211515       -0.57932043971836
N            0.94391419210956       -2.58050525543356       -1.21156931374294
H            1.91823648073831       -2.50900064198993       -1.44796502294024
H            0.42851321573517       -3.40769436543595       -1.46261882988559
C           -1.03553776023534       -1.71348155917866       -0.28197507162491
C           -1.58580449457054       -2.95697625418034       -0.66538658617901
N           -2.00854372335732       -3.96758826494613       -1.01703596377818
C           -1.92872659387375       -0.92568454447061        0.48428273741985
C           -2.99983086583826       -1.47191854483503        1.15717410175668
C           -3.77237413877519       -0.43790276669267        1.73099541898169
C           -3.25034845537668        0.77819578894995        1.35734769741994
C           -2.08947406789132        0.56156225007817        0.58051960572681
C           -1.46201092177569        1.59076920866677       -0.10163242068888
C           -2.22760940283200        2.78508312843987       -0.15497605710718
N           -2.82510163736596        3.76269474132803       -0.23823200705399
C           -0.15032168878512        1.73801194028060       -0.65651162516510
N            0.06679299548531        2.85390100875439       -1.38805031903677
H           -0.63710049982114        3.57169312501423       -1.45265832424501
H            1.00012926515405        3.06134932111936       -1.69880480807098
H           -3.62481806667713        1.74479703863709        1.63619393123303
H           -4.62920203714881       -0.58918218614667        2.36213660873581
H           -3.19305024424478       -2.52242818418448        1.26777947432661
H            2.43083747985602        2.63287224489298       -0.17986380528991
