33
 energy: -58.843070848591 gnorm: 0.000735148806 xtb: 6.6.1 (8d0f1dd)
N           -0.62159121850744       -4.32662778350566        1.27872070349968
C           -0.57603899333278       -3.22426722047617        0.95866591131677
C           -0.57662909331305       -1.85637366959474        0.58934951057187
C           -1.86782696816129       -1.36766990398977        0.37516821682373
C           -2.39601655683631       -0.14776637237905        0.01453716614550
C           -1.91293839279065        1.23367953300017        0.16249523660958
C           -0.72369954164415        1.76931174915955        0.69077610640945
N           -0.84095245432903        2.98282951422294        1.28073177425380
H           -0.02492769099208        3.52253326612627        1.51766103698780
H           -1.74606850363056        3.41215662852988        1.34979947314659
C            0.61612234792502        1.28387876777561        0.56053903268319
C            1.58870335652126        2.26336275175922        0.88302996005466
N            2.32364194887625        3.07241261011403        1.24068314176352
C            1.17944149856170        0.07089719587763        0.16001936280771
C            2.53478473192070       -0.02215725934671       -0.21722506869368
C            3.41424395197920        0.98145444840513       -0.62019879103370
N            4.20785988582778        1.70752442438979       -1.03050953409824
C            2.91084352280233       -1.39332451357541       -0.24850149474430
C            1.79275449069200       -2.16049859751139        0.12151853454184
C            0.69757647555622       -1.32891164803622        0.30871383160238
H            1.77686382522025       -3.23236199488604        0.18316316513221
N            4.12173730741245       -1.84897022876999       -0.58735254398581
H            4.84209751031904       -1.19996246850926       -0.85726728178566
H            4.32018726706543       -2.83374453368006       -0.57795632281621
C           -2.99080655524657        2.06051462239846       -0.18528972414220
C           -4.07761424217652        1.29281318001459       -0.58872380937947
C           -3.75167974943687       -0.05036764696292       -0.43426509021536
N           -4.60421984574208       -1.09622363655888       -0.66433893687279
H           -4.20938077271255       -2.00401730148615       -0.84512230198629
H           -5.43345387140814       -0.88115792568245       -1.19266787933162
H           -5.01431033314199        1.67196198773290       -0.95371315499034
H           -2.96992876115710        3.13479527010631       -0.23784910433815
H           -2.61464022821860       -2.15467394246301        0.45507408486607
