30
 energy: -54.902999067057 gnorm: 0.000769465509 xtb: 6.6.1 (8d0f1dd)
N           -3.26464666708033       -3.49564964097858       -0.90962211485929
C           -2.81686098340308       -2.46259358756487       -0.66586168616805
C           -2.31084887827530       -1.20200258196308       -0.36760003042655
C           -3.08087558909985       -0.13841391829276        0.15079030493807
C           -2.22746412845298        0.98124262094996        0.35882613775296
C           -2.66100375226074        2.21907150559303        0.82585031781305
N           -3.06634914046359        3.22221192423252        1.21824238454547
C           -0.93128299088210        0.64970548041481       -0.07546351316726
N           -0.02180834953240        1.54924852085625       -0.28818762261038
C            1.25444920915414        1.65208018275939       -0.51848290744825
N            1.62702912738840        2.75114882418827       -1.20591665971700
H            0.92559174505760        3.42601472144188       -1.45956185444375
H            2.59956286001958        2.97740048476602       -1.31065319810362
C            2.29384155449375        0.80459985705958       -0.02787654528743
C            3.57115342719401        1.21449848972325        0.30532896163177
N            4.39878138065227        0.18914716210874        0.61503958420252
C            3.70352233992895       -0.91867362406371        0.43580100296229
N            4.26603436085906       -2.13602017266277        0.60916248263133
H            3.68350320217212       -2.94394973071319        0.74278769368745
H            5.17426430307028       -2.14066289721775        1.04195257429747
C            2.32569561767458       -0.65003180487734        0.03601832353871
C            1.45318514950366       -1.65150215841839       -0.30632090524617
C            0.07449293800872       -1.70986747277894       -0.56520821963739
C           -0.94888055056220       -0.80077939666415       -0.43020056060874
H           -0.28168188012877       -2.71478707282069       -0.77511804122023
H            1.91169967626082       -2.63603501030142       -0.32974168194618
H            3.93555433313582        2.22269892236921        0.39484863672517
N           -4.39347301033089       -0.16754163411948        0.40584888940957
H           -4.93187879221315       -0.99049153416750        0.19507631514594
H           -4.84878463188826        0.63875346774270        0.79842379010962
