28
 energy: -46.633860263903 gnorm: 0.000652640905 xtb: 6.6.1 (8d0f1dd)
N            5.38938640615463        0.74485453384487        0.10716893770787
C            4.24813395789172        0.69049406089538       -0.02390767629399
C            2.86369832727080        0.56291591089807       -0.15757279543438
C            1.94288510589472        1.56324152442040       -0.44970191076754
C            0.64302053566516        1.03259933793988       -0.40651044747814
C           -0.41848537798122        1.91268624639995       -0.58441271644072
C           -1.78666099733542        1.87255024314452       -0.39279714277406
C           -2.67791279002508        0.88563905055807       -0.00409666505844
N           -3.94156046748908        1.25203897287129        0.22273050038464
C           -4.63568842000129        0.14149410798109        0.52803640754368
C           -3.86676716686672       -1.00185328969055        0.46699463388957
C           -2.55319959113994       -0.59606560916280        0.14497250049539
C           -1.54686220261840       -1.50453086645911       -0.07318086529686
C           -0.14907389571278       -1.47579043764777       -0.26906614728928
N            0.37961108656962       -2.70633759898374       -0.50829596700792
H            1.33983807074973       -2.78254631743070       -0.80254375659927
H           -0.23443207775347       -3.48567386779641       -0.66842056340173
C            0.78538883025529       -0.42115443701446       -0.16114415019611
C            2.16142850510601       -0.65660546907406        0.01234270344371
N            2.80515279328133       -1.86013975570701        0.29848026153007
H            2.35096147887024       -2.42031564960917        1.00810322911012
H            3.78523057397455       -1.72056983999893        0.51173022262881
H           -1.91952254293652       -2.52784008423112       -0.05149589798755
H           -4.18984528656254       -2.00793190607838        0.65360573497388
H           -5.68042739029124        0.21674609324161        0.77538343777259
H           -2.29321402675507        2.82257828199760       -0.52232644135169
H           -0.06522600201823        2.90175676088725       -0.86214679596085
H            2.18475895700275        2.59515807310357       -0.62194713384232
