29
 energy: -55.978125839005 gnorm: 0.000729658450 xtb: 6.6.1 (8d0f1dd)
N           -5.96727485712216       -0.00040717640606        1.44597347078649
C           -4.89747997176620        0.00080273491567        1.02726442255271
C           -3.59720351266425        0.00099090447060        0.51216217045224
C           -2.84907728275830       -1.13822564998305        0.17314448395062
C           -1.60666472147387       -0.72337804982745       -0.29835131221602
C           -0.62513869308171       -1.60039818373509       -0.86691898568873
N            0.65566861220177       -1.57516425163021       -0.61697019320246
C            1.57453255383310       -0.75914337950119       -0.23491198271735
C            1.57525137146339        0.75914627496066       -0.23210035104837
N            0.65714251294844        1.57744195983577       -0.61109871677339
C           -0.62364249160408        1.60476110360548       -0.86091231757067
N           -1.05902251730823        2.65221277735743       -1.58526510999626
H           -2.04543063131687        2.82127094683181       -1.67659337371270
H           -0.40580888224689        3.37081912749477       -1.85109315400817
C           -1.60597165171341        0.72650753381807       -0.29561008233868
C           -2.84796036361456        1.14075094367748        0.17751359123862
H           -3.16853043517079        2.15615273241464        0.32114801122247
C            2.80054968815836        1.14722886207799        0.35841502884168
C            3.20883398685990        2.47256703633730        0.53792907275796
N            3.53404780309041        3.56490510149093        0.67917762963422
C            3.52841294519448       -0.00262715700627        0.68639315161252
C            2.79955926953496       -1.15056665934094        0.35395537304306
C            3.20683016864894       -2.47693735414390        0.52807845914440
N            3.53062877168255       -3.57016439838767        0.66570329484661
H            4.50841728082641       -0.00391072012344        1.13015203643538
N           -1.06143811922000       -2.64457801064544       -1.59544278289557
H           -2.04760861699329       -2.81200770246136       -1.68815400941857
H           -0.40887705070227       -3.36273685195295       -1.86406685535379
H           -3.17061200338677       -2.15386984574406        0.31289321502122
