30
 energy: -50.878879567876 gnorm: 0.000586841163 xtb: 6.6.1 (8d0f1dd)
N           -4.32980818718971       -2.87416551451797        0.36757406479912
C           -3.81636901090131       -1.84987606749434        0.25763225248293
C           -3.17469069525605       -0.62015015315527        0.12515692646950
C           -3.75666584914310        0.61114797968665        0.03475618679491
C           -2.72852139232672        1.58709797520232       -0.09108393362616
C           -1.48932883495884        0.98835941272982       -0.08081342359581
C           -1.71197474528983       -0.45512925187300        0.04416731819132
C           -0.93916416019646       -1.56715458579095        0.05980496486632
C            0.45643115602841       -1.84345258690483       -0.03317695656535
C            1.58526560320666       -1.09460592561064       -0.05544350748369
C            1.86837005179780        0.34289184920446        0.01405674354239
C            1.05688296986531        1.48346012237773       -0.07684673449630
C           -0.28801938195696        1.76683306898738       -0.15063084184840
C           -0.51769174880530        3.15783437572922       -0.28334412678569
N           -0.63904165106525        4.29548145268849       -0.39468929557706
H            1.65153654198653        2.39348320573468       -0.12037088895107
C            3.26199464032081        0.46683121487168        0.11559526155011
C            3.87216154662402       -0.82285593725088        0.05940006653922
C            2.89685558252677       -1.76519112283247       -0.07728345570077
N            3.08465708411030       -3.11382302425692       -0.12638007865151
H            4.02906912612316       -3.42603252425291       -0.28046471767223
H            2.37070284216470       -3.68675686416216       -0.54398260369644
H            4.93109615264414       -0.99925484956597        0.10526828190598
N            3.99273121202636        1.60170668834850        0.20589572957859
H            3.54351169426753        2.47911207705597        0.40153708638100
H            4.96873967921613        1.52571005997203        0.43102942105088
H            0.63255019099334       -2.91389819899219       -0.05365380872300
H           -1.51942656382209       -2.48265637790004        0.14983964534216
H           -2.90925625813180        2.64329877657606       -0.17403224027617
H           -4.81069694305853        0.82106258719560        0.05679460815518
