29
 energy: -51.155059520953 gnorm: 0.000775284063 xtb: 6.6.1 (8d0f1dd)
N           -4.96892860574947       -1.83371013323983       -0.09408013144964
C           -4.15867076893543       -1.02660065465449        0.02901199812229
C           -3.16846711269960       -0.05249984160602        0.16086110760786
C           -3.32957106113769        1.22622865534040        0.65114654594355
C           -2.08314224584579        1.88375897806026        0.61881052093225
C           -1.10081366084167        1.02721346936376        0.15815639279356
C           -1.76860627157851       -0.26251368203992       -0.14061671364932
C           -1.36521331957011       -1.47077619045861       -0.63050656493141
C           -0.10743816259988       -2.09049972157476       -0.76899761203584
C            1.15633528170674       -1.70944447094287       -0.41759290801057
C            1.82464811946879       -0.47775139760149       -0.03248538158136
C            1.46670850205470        0.89232802467453       -0.24398003192486
N            2.52020421585746        1.70678816674642       -0.50885942689751
H            3.41592193344019        1.30501098955003       -0.72161364031229
H            2.36172578914444        2.68115299089048       -0.70738960426783
C            0.21100826608643        1.50491820156571       -0.12920415186579
C            0.24406007913784        2.91146068337291       -0.26805410954173
N            0.30635162502543        4.05187302042945       -0.40915014424604
C            3.10184290027104       -0.88373161714815        0.35686172399172
N            3.27640714142277       -2.24483493096255        0.24641848392994
C            2.18134809483853       -2.72279160588299       -0.25495255326498
H            2.05071410503725       -3.77532909848559       -0.42499279531284
N            4.15801208105564       -0.14062772674827        0.81712663877595
H            3.93734352845493        0.68416505508112        1.35463673694615
H            4.89070747817509       -0.71270750846728        1.21069984700320
H           -0.17265526832235       -3.12099086675910       -1.10319098855552
H           -2.19216992439075       -2.13661345985662       -0.86267055294441
H           -1.92748614417663        2.90315843608664        0.91981144448953
H           -4.25164936812881        1.65400939206816        1.00102885315534
