29
 energy: -49.572051131074 gnorm: 0.000843689480 xtb: 6.6.1 (8d0f1dd)
N           -4.90692032588529       -0.48068757744946        0.80654536705960
C           -3.63775298715980       -0.36246576417887        0.38130504804145
N           -2.94112883611880        0.76665419252171        0.65481875572456
C           -1.73149998561573        0.59320013239047        0.13274680953797
N           -0.94669369226235        1.60795007545279       -0.04542281610890
C            0.31187696220175        1.82383397707706       -0.30122219104396
N            0.58757876977113        3.00246866574565       -0.90773994868827
H           -0.16331843237258        3.66162898848441       -1.02624032316235
H            1.53844263628233        3.32628284486651       -0.93193079451778
C            1.42243743515611        1.03384124629156        0.11057863530268
C            2.61887288745963        1.55674212380950        0.58946538397060
N            3.52481086429040        0.60331744923033        0.85426047690078
C            2.97255725953275       -0.55061916081602        0.48766333273951
N            3.70710334450474       -1.73624492830988        0.59210453753281
H            4.59246773747418       -1.53413455646762        1.04252026463987
H            3.21231085900145       -2.46813677876286        1.08935859952272
C            1.63807984147840       -0.39762348044182        0.01832478053847
C            0.89296101326210       -1.41885371419922       -0.61173619555147
N            1.60898234659404       -2.51958791989112       -0.97924173086178
H            1.16419235034482       -3.23822298440232       -1.52253869123514
H            2.61510682550960       -2.45925595279387       -0.97673097969974
C           -0.49267906204461       -1.53546530185731       -0.82599515926403
C           -1.59500615494488       -0.80801629268196       -0.42287378260604
C           -2.88768551997761       -1.31760562194737       -0.32078531694529
H           -3.22945579814848       -2.28861678974629       -0.62327310173129
H           -0.76665161140922       -2.50158269114320       -1.24707382341343
H            2.83724271322124        2.58329315182485        0.82658358533660
H           -5.48807866623159       -1.22752393367708        0.47194436698467
H           -5.32679209921489        0.31635334757082        1.25109675579678
