29
 energy: -51.959544118066 gnorm: 0.000862080681 xtb: 6.6.1 (8d0f1dd)
N           -4.15671541681868       -3.41677840752169        0.09378680910341
C           -3.81270736958230       -2.32003303458644        0.06278633378944
C           -3.36997946435330       -0.99650941682274        0.02608851703782
C           -4.15161133077650        0.13443752135082       -0.01972540812917
C           -3.30788797827751        1.26647566300145       -0.04675741106488
C           -1.98127123191885        0.87841151734108       -0.02018947241914
C           -1.97020632890422       -0.60155038957309        0.02049852411798
C           -1.02036152176752       -1.57423996763393        0.03657174625045
C            0.39834964105131       -1.61749470071172        0.00943335042419
C            1.39798608055975       -0.70007354691923       -0.00146085513344
C            1.43435782201825        0.78916215218371        0.02692713828341
C            2.76576204711496        1.15416099799249        0.05430123917536
C            3.59650257341399        0.00289510045840        0.03312053375687
C            4.99388934668700       -0.01505240150838        0.04116167276483
N            6.14174315060531       -0.07119390446173        0.03948024126359
C            2.78636394673103       -1.12921474306317       -0.01231192792676
N            3.24089641555455       -2.40199702801785       -0.01144507058513
H            2.63375877738670       -3.17523373432388       -0.21367655421224
H            4.23188440740668       -2.54913744992249       -0.10167778132869
H            3.13869675515014        2.16138494539627        0.08145418286758
C            0.44858230980484        1.78154900299260        0.01690720589585
C           -0.93191292207770        1.83531514131921       -0.01412759373755
C           -1.39256891980070        3.18125810803464       -0.03472662249066
N           -1.71562298579559        4.28189462761369       -0.05197657083806
H            0.89793152585057        2.77236723379588        0.03018180756185
H            0.74824112709476       -2.64562483442349        0.00663920902964
H           -1.44976183291373       -2.57278658557634        0.06603798638224
H           -3.65787688616264        2.28145077284859       -0.07990757979775
H           -5.22609672898092        0.15853226113799       -0.03227155464193
