27
 energy: -46.926172763241 gnorm: 0.000753486109 xtb: 6.6.1 (8d0f1dd)
N           -2.00954158434809       -3.67397574222054        0.27549595366685
C           -1.40010184791980       -2.70262794249493        0.21775678416484
C           -0.61962651682386       -1.52039163843419        0.13745388514512
C            0.73512327929629       -1.77116297507336        0.14137213812013
C            1.89635157263600       -0.99673914764574        0.10817621273395
C            3.13707621265950       -1.62643606732655        0.30151345261523
N            4.16437032952725       -0.77731845713346        0.25643656161639
C            3.65353690777155        0.41563627000696       -0.01551491049369
C            2.24197185667967        0.40391123839872       -0.12492206278993
C            1.49546093864602        1.55123652343761       -0.43089875830631
N            2.19089823471052        2.63424569739231       -0.84779458696913
H            3.18717818720823        2.59197559159108       -0.96186317006795
H            1.72048310284436        3.50624343029017       -1.01403949101865
C            0.10400413836503        1.80333079152047       -0.32234781865150
C           -1.04043056243763        1.10272700373676       -0.06675444919795
N           -2.17421003056479        1.85582705932532       -0.01696412191560
C           -3.19038932591292        1.02883288233155        0.18035290282645
C           -2.76361609713584       -0.33577058421027        0.25772858237130
C           -1.39919596183403       -0.33205441140477        0.11660356506652
H           -3.40403538104345       -1.18316617304428        0.40627476560173
N           -4.45386614114368        1.45624782177194        0.28192623838109
H           -5.20272782323855        0.80903806620323        0.44794569157117
H           -4.64217545930196        2.44151359867687        0.22963806549407
H           -0.13924333078737        2.85225796925949       -0.47375419632014
H            4.31947301446310        1.25946916427095       -0.07135300848299
H            3.29920107195380       -2.67105383363393        0.49651576534897
H            0.96593662962848       -2.83118852659403        0.22650558028853
