27
 energy: -46.932011156923 gnorm: 0.000417680034 xtb: 6.6.1 (8d0f1dd)
N           -3.59411174177866       -2.47301554531630       -0.38553481346440
C           -2.99709236905526       -1.50157189027861       -0.22515632571709
C           -2.32757334474852       -0.29586088824671       -0.04035619141849
C           -2.93794244095752        0.98823731375432       -0.13780449285669
N           -4.22915894105535        1.18850882079815       -0.43072180740386
H           -4.60520694726826        2.11879804053228       -0.47738644161861
H           -4.83722721779052        0.40143924111255       -0.58061656468622
C           -1.97330530213682        1.97688803455166        0.10889997696404
C           -0.75107344590267        1.37689726558287        0.38350600969378
N            0.33300407507120        2.06497409962973        0.61621810436049
C            1.61430857093060        1.88601351277358        0.52100458179245
C            2.37082587091381        0.89653685443218       -0.12156912241464
C            3.65364880391576        1.14947549962331       -0.65551375398713
C            4.16895367668890       -0.02451334513462       -1.16604380330247
C            3.27327764113956       -1.06311601933698       -0.87823735576007
C            2.14387209915907       -0.53199518610375       -0.25959540052402
C            1.14087970989331       -1.32042508193480        0.38861343219715
N           -0.14698239424652       -1.10942131914347        0.42074253355664
C           -0.97378406105044       -0.12373110608794        0.28646590171683
N            1.53560470255217       -2.49315473838344        0.93366979700058
H            0.83374183488930       -3.13922564532634        1.25294910309773
H            2.48222430567322       -2.80451544399364        0.81164614203604
H            3.41995873007963       -2.09785389934790       -1.13537746991330
H            5.11773662487412       -0.14088300376109       -1.65742932303310
H            4.11335923227400        2.11983457604790       -0.69654662989743
H            2.18054569645245        2.74535498096403        0.87968576165419
H           -2.14536525221649        3.03562981869143        0.08551889352487
