27
 energy: -46.915134449172 gnorm: 0.000940063344 xtb: 6.6.1 (8d0f1dd)
N           -2.31230312395619       -3.48805306019247       -0.26164937371455
C           -1.80064737830058       -2.46552520319905       -0.16818360206564
C           -1.08087858704706       -1.24662918818639       -0.06928791973058
C           -1.89477515272263       -0.11775534057684        0.06752724134405
N           -3.21007302556848       -0.25749921778650        0.19960938308968
C           -3.68365152977951        0.99606237870794        0.34139900634069
N           -2.80191560470237        1.96479461265263        0.28413551804565
C           -1.59763251873674        1.34054639196793        0.09835012225189
C           -0.51125625754740        2.12619486886336       -0.13249295473668
C            0.87998056006464        1.93086958331703       -0.36177478209499
N            1.48789705288296        3.06842010077691       -0.78581161586002
H            0.95065747960054        3.90688265591691       -0.91581610031551
H            2.45664471967479        3.07407961765343       -1.04383679946362
C            1.70130268433580        0.82298822003581       -0.12020632455394
C            3.10029965127477        0.95323450897111       -0.05153747200494
C            3.69164467363493       -0.27247131878658        0.20080663952547
C            2.69507303232701       -1.24699718848406        0.25741986005682
N            2.93959163843908       -2.57941444589314        0.43367473370705
H            3.86352022292444       -2.82220950027427        0.75042984878748
H            2.20239529186154       -3.17045235879788        0.78020752278225
C            1.42312396678117       -0.62469193201276        0.06621210543844
C            0.30298738528282       -1.42473485829525       -0.02415263500773
H            0.55127493665837       -2.48370680706454       -0.03970975277369
H            4.74333658897998       -0.44829546210118        0.33426020504572
H            3.65876881939713        1.87031185442481       -0.10256451424374
H           -0.79712447312811        3.17488082046655       -0.15468855123615
H           -4.73250785373332        1.17999737419886        0.48903729288669
