27
 energy: -47.727574735211 gnorm: 0.000443605193 xtb: 6.6.1 (8d0f1dd)
N           -0.84741535931978       -4.21666207295871       -0.01206052444983
C           -0.49677106911627       -3.12390123248041       -0.01174934653471
C           -0.02702660231452       -1.78195165663376       -0.01106398517994
C            1.35548201286574       -1.72020846710826       -0.00939135851108
C            2.32069695985981       -0.71606527315662       -0.00807282263251
C            2.27388377976794        0.76330145219207       -0.00816071867147
C            1.26726183052148        1.69663035211891       -0.00952530498406
C           -0.13567700733932        1.66182910899633       -0.01119844963848
C           -0.70856555462013        2.96728324855120       -0.01225247491757
N           -1.09606285606928        4.04587840023329       -0.01280933296615
C           -1.10498716678831        0.66222861314017       -0.01218827257691
N           -2.37714947108059        1.08674678958264       -0.01352894489526
C           -3.16660907045719        0.00613383578056       -0.01430651764451
C           -2.40631248652429       -1.19541035702503       -0.01352630762574
C           -1.07625815736862       -0.82949539516659       -0.01214225348142
H           -2.80844664740663       -2.18927457171272       -0.01393475790617
N           -4.49544920901182        0.11824898871406       -0.01564361085260
H           -4.89940774274755        1.03909575405328       -0.01606084083166
H           -5.08480116651464       -0.69466909426772       -0.01616499507022
H            1.64373925994059        2.71751633546743       -0.00913700586764
C            3.62694278115050        1.19451850768733       -0.00635568129083
C            4.46106254104279        0.09938425064008       -0.00519366052675
C            3.67358472937780       -1.05959230657834       -0.00626740512259
H            4.04963897764887       -2.06669218901135       -0.00577829385549
H            5.53563464922527        0.12098713640090       -0.00371235366766
H            3.93038945164982        2.22528434178931       -0.00595578276727
H            1.80982812622829       -2.70927786544819       -0.00889883723148
