26
 energy: -47.208119015900 gnorm: 0.000844388279 xtb: 6.6.1 (8d0f1dd)
N           -3.62161785687836       -2.75983875095448        0.20824216002093
C           -3.06648115149458       -1.75569261110311        0.11319376479131
C           -2.45607716145690       -0.51080833012354        0.02597991434174
C           -3.10739881013183        0.74143755092632        0.29231065223453
N           -2.28058978933254        1.77783651073140        0.19949741400277
C           -1.07420384317547        1.31855800876707       -0.16770165111061
N           -0.05251057056326        2.09194501828032       -0.14591531107336
C            1.25563054551212        2.01550240571045       -0.16133874747095
C            2.13706925442427        0.99210378444950        0.14621355498355
C            3.49585721889838        1.26705790659588        0.48012096688163
C            4.19218233368619        0.09597671060150        0.60836996024427
C            3.32309458173928       -0.97570216993976        0.28015968106920
N            3.69784220147492       -2.27589393052202        0.22321164004511
H            2.99950413128382       -2.99348397377715        0.13600495793051
H            4.58814174625187       -2.53879906034964        0.60760012245645
C            2.03798802262241       -0.45749014161369        0.00616645304478
C            1.04075127412935       -1.21065807442882       -0.63479479069474
N           -0.24000860477565       -1.06719204766972       -0.65882127928366
C           -1.15093748439411       -0.19628525165110       -0.36278999814521
H            1.37130104932013       -2.11968347310194       -1.13685230146458
H            5.23156513017166       -0.01327127420690        0.85750155981104
H            3.88504215695926        2.25618236604472        0.63725775878191
H            1.71257240530022        2.99329960508729       -0.30703842912402
N           -4.39364725073269        0.88335467916406        0.61775001005541
H           -4.75808270765374        1.80764533707283        0.76766486440289
H           -4.98960884688788        0.07808361831271        0.69794802476668
