28
 energy: -47.447400276128 gnorm: 0.000878941561 xtb: 6.6.1 (8d0f1dd)
N           -3.68482705928137       -3.29449051016926        0.04644082853022
C           -3.16024343820818       -2.27157546427641        0.05533219262596
C           -2.52480521875017       -1.02694462316618        0.06659389205911
C           -3.18732746743150        0.21355721562642        0.04104131956906
C           -2.23724172955827        1.21912699016155        0.06747095984902
C           -2.48753033482276        2.59226417404115        0.07158460077149
N           -2.66249574167098        3.72910719700272        0.08151070991453
C           -0.91893182238626        0.63474553596966        0.10407342530096
C           -1.12577311615072       -0.82228103640380        0.09428235195444
C           -0.25303131278749       -1.90049703154124        0.11704580604740
C            1.12132844046023       -2.03402984129943        0.05136077537958
C            2.21691956064506       -1.18517595417778       -0.05989501650776
C            3.48386900547582       -1.76703506316673       -0.25335035461486
C            4.44341889315143       -0.77642316616643       -0.35794605690890
C            3.82248364423314        0.45785825726016       -0.18735926121318
C            2.44207964404123        0.27826311901622        0.00011325058667
C            1.58045284368143        1.36184957751463        0.24322821349770
N            2.16564214723363        2.55885065983876        0.49685925210859
H            1.60584100496238        3.38281774649848        0.62652902612376
H            3.16047847356473        2.63777938559665        0.59091000455191
C            0.16330517220711        1.46242219087160        0.20338171025410
H           -0.14816700811574        2.50482537602656        0.26428382682517
H            4.34917010228691        1.39298045952995       -0.25147240772070
H            5.49245160706268       -0.92589424364207       -0.53799898804260
H            3.66024009375830       -2.82367927829352       -0.33321960910557
H            1.43172743532577       -3.07483746692021        0.04059791718518
H           -0.77988193071886       -2.84984970867763        0.15588661725865
H           -4.25331111360740        0.35011544364667        0.00957647541936
