33
 energy: -58.054801057032 gnorm: 0.000772462038 xtb: 6.6.1 (8d0f1dd)
N            4.73622422452528        2.50210511326215        0.07127869070708
C            4.12730343263230        1.52325189670778        0.06884626644256
C            3.42249934427841        0.32954396689645        0.06157440387268
C            3.99164814616537       -0.96635294089883        0.27507376879108
N            3.08137337807605       -1.93040541035661        0.18141219440542
C            1.88539972361714       -1.34259490727176       -0.06131135806459
C            0.81349959938779       -2.17374785728806       -0.27366833397412
C           -0.56325431158376       -1.98064012374020       -0.42030264827516
C           -1.43404321966397       -0.92452540900577       -0.32152288172864
C           -2.84487852243655       -1.19858053879305       -0.22017375156423
C           -3.51050245590498       -0.00588028326528        0.04845982412955
C           -4.86765607360689        0.13825687038797        0.32163343614770
N           -5.98465797818512        0.26618272755066        0.57041465071918
C           -2.55959907688552        1.05838920075739        0.03860069368945
N           -2.94280523524037        2.36837883953121        0.25824071394164
H           -3.87706836770576        2.45239679630263        0.63544622495922
H           -2.26788408169119        2.94573068502075        0.73864322678448
C           -1.28702558283037        0.54406395536344       -0.21918923809985
C           -0.18202234427648        1.38427118303771       -0.52867987294140
N           -0.51631666000547        2.65924446696231       -0.89175279419326
H            0.21636246788918        3.27021461899742       -1.21132010525379
H           -1.45012942197705        2.84614585161940       -1.21517434754152
C            1.19793389945054        1.18111680831902       -0.44042061947510
C            2.04469844873063        0.13100298378380       -0.13384390376741
H            1.75566519282772        2.10065792962905       -0.61051255714885
N           -3.47076184760499       -2.40039061970737       -0.35141972338935
H           -2.93690646640760       -3.24839573162669       -0.27190934682712
H           -4.42435907292056       -2.44763536338239       -0.03058768013404
H           -1.07179555785156       -2.92943452687924       -0.56421197419228
H            1.11752644738894       -3.21434580811595       -0.27027613248343
N            5.27932779131097       -1.21710835950820        0.53859701319557
H            5.57517144762658       -2.16830765517031        0.66532405761526
H            5.94627764766933       -0.46718177722574        0.57779776566163
