30
 energy: -54.892013141759 gnorm: 0.000944072876 xtb: 6.6.1 (8d0f1dd)
N           -1.50224417572566       -4.21724494913455        0.35252688252488
C           -1.04785509812416       -3.16815961932029        0.26200130556717
C           -0.41206036905094       -1.90309942199249        0.13390584350069
C            0.98035717170040       -1.99018168231033        0.06519398738956
C            2.01951194059565       -1.08719018093565        0.03890448386266
C            3.34608442152581       -1.57249364870438        0.19072302248251
N            4.24247775939747       -0.61132682493545        0.25835792621828
C            3.57722913766843        0.55274213074584        0.10104217787397
N            4.30080016261491        1.73417476617234        0.12093053060996
H            5.27136286762264        1.53858768319150        0.33584037053617
H            3.92089554956145        2.45535593064884        0.72153874965178
C            2.18760728086236        0.36817046421965       -0.07123254337993
C            1.30846119626900        1.40159463534781       -0.44733863310187
N            1.88928406440930        2.55926306933343       -0.84848872504130
H            2.87383018662255        2.56491472004975       -1.06608371014668
H            1.31190523572140        3.30496746543126       -1.19833246009470
C           -0.10218710730351        1.46566543605243       -0.41558031350897
C           -1.14671386938835        0.62609833418959       -0.11156347704410
C           -1.31322140381475       -0.83441965812716        0.13647536962898
N           -2.59758424196142       -1.12907524810839        0.32758621402490
C           -3.30882459701508        0.01168057202732        0.23126513335352
C           -2.47588476100746        1.11776141153610       -0.05783254363569
C           -2.89704381592752        2.42906658013975       -0.23356016675569
N           -3.25752382441109        3.51275421256850       -0.38343557320543
N           -4.63167228281008        0.01485063281313        0.39869199350956
H           -5.16061406690789        0.86481348476243        0.31007652278729
H           -5.09297826392916       -0.85624376653105        0.59649248161185
H           -0.45908685186406        2.46572544421230       -0.65797466691662
H            3.63409950423171       -2.60207721379682        0.29621638706646
H            1.32938641144119       -3.01979764504706        0.10356277453452
