26
 energy: -47.202288459499 gnorm: 0.000654150159 xtb: 6.6.1 (8d0f1dd)
N           -3.63085988085065       -2.72731849108891        0.09186239629214
C           -3.08940635693364       -1.71225455136825        0.04492438237559
C           -2.49828127980418       -0.45320942146857        0.01495749966814
C           -3.17018609183148        0.75482680325362        0.34911035125780
N           -4.45628906640801        0.82947489338714        0.71362220066594
H           -4.87563038669908        1.71543449263041        0.93339997060264
H           -5.01758017364488       -0.00483764768898        0.74198515459125
C           -2.26490506524444        1.82545896060338        0.25581179232112
C           -1.03539653058022        1.36417511923467       -0.19269580814934
N            0.01475945808711        2.12193354160277       -0.29109140927433
C            1.30347197484677        2.03159592476837       -0.27500970747091
C            2.15371760681202        0.98672498640850        0.11253872646749
C            3.51417755674820        1.17284186888007        0.40334593324581
N            4.19708897979533        0.03294504733077        0.50366524978337
C            3.33148679213898       -0.95290370144424        0.21876785711274
N            3.73529857664846       -2.23853376517472        0.19838445358870
H            4.66256130959971       -2.43515003248712        0.53176560995667
H            3.06425764699015       -2.98375507925525        0.15564498347263
C            2.01330319771215       -0.46013576080805       -0.03488062437631
C            1.00295717450016       -1.21650786162647       -0.61446517440418
N           -0.28760350657916       -1.05280084294956       -0.58909903249023
C           -1.17184716856482       -0.15004642525732       -0.35081195962739
H            1.29478776366253       -2.16331375363655       -1.06660113008709
H            4.00931040748155        2.11334980620299        0.56533521111976
H            1.80092658165204        2.96823527866790       -0.51967774487833
H           -2.48411870433468        2.84892991538505        0.49187422113852
