28
 energy: -50.656028687613 gnorm: 0.000814171959 xtb: 6.6.1 (8d0f1dd)
N           -1.73887480015364       -3.73020285612483        0.10256206377345
C           -1.30201675340831       -2.66882392675669        0.07826009675958
C           -0.67901530914422       -1.39583436109075        0.03877503955585
C           -1.58173188243189       -0.33151858555473        0.08616682718902
N           -2.87643057398313       -0.58872533993339        0.22888052789039
C           -3.47847597820515        0.62504333662463        0.24003546288778
N           -2.66719838614982        1.67517894385889        0.08932890223084
C           -1.42772398477177        1.15507046324646       -0.01484539612477
C           -0.39447883647936        2.02431515412712       -0.25949433185577
C            1.00626507443308        1.94994214945861       -0.39378757969907
N            1.55964704258938        3.12461213941688       -0.78012919650503
H            0.97939870187687        3.93382341340784       -0.91224239333369
H            2.54732993336636        3.20770423228522       -0.92942500292745
C            1.90791997372113        0.89456108245701       -0.13937411485478
C            3.28945592042077        1.09446754624606       -0.04696122306387
N            3.98741281170691       -0.02586716224310        0.17062367975467
C            3.10649237692382       -1.02266817299551        0.19523627071642
N            3.53474306173162       -2.29995862084285        0.34036633214614
H            2.90016777171493       -3.01279041558745        0.65631806732523
H            4.50091101561698       -2.39958871479522        0.60311003432512
C            1.75053317407690       -0.55920916502047        0.03075495288834
C            0.71893735692510       -1.46376713896966        0.03155248753092
H            1.05770950815203       -2.49696614681288        0.06717571980596
H            3.83601207395156        2.02093541237243       -0.07157086825135
H           -0.77839294287420        3.03430792852173       -0.37689441152363
N           -4.79715193492704        0.73843715735791        0.38938715813436
H           -5.34682941600938       -0.09549806514622        0.49089285197915
H           -5.21937672386873        1.64884248379168        0.39448551024601
