27
 energy: -51.724664237021 gnorm: 0.000847815194 xtb: 6.6.1 (8d0f1dd)
N            4.45635705618609        2.47156718497631        0.66343384865845
C            3.96697649433217        1.43938440159665        0.53873706808233
C            3.35470186266220        0.19424951015873        0.39203980684569
C            3.88749155507978       -1.07194928061684        0.68903987485749
N            3.04826812883319       -2.06616072574829        0.44477040797756
C            1.93962552179420       -1.56291561671927       -0.11014145022977
N            0.89706926796963       -2.27112401882926       -0.32521739716861
C           -0.37539830316006       -2.18373523270892       -0.56911806982367
C           -1.28370065595542       -1.16463668332881       -0.27758883539986
C           -2.64905846614444       -1.43927662429866       -0.03646200202247
C           -3.31246640063197       -0.25164329415144        0.21768116314880
C           -4.66089201007103       -0.07067197183402        0.53160282109262
N           -5.75894685481429        0.12659034395986        0.80926605095832
C           -2.38187082257705        0.82775733217864        0.05426052349028
N           -2.73504213772535        2.14480546917349        0.13487402126459
H           -3.61750847746912        2.33213615078662        0.58714931130533
H           -2.00290481926967        2.80948514505952        0.33096193924329
C           -1.12683596937824        0.28537856041452       -0.23760439338853
C           -0.02923186154654        1.04503803279779       -0.75840138495787
N            1.23218502572229        0.84752368316960       -0.52178629592382
C            2.09813725717742       -0.04361682798427       -0.20857320834504
N           -0.31603512508309        2.18948405243177       -1.42939204771619
H           -1.24459118647224        2.33610896186827       -1.78521323380230
H            0.44851383071573        2.69792565067261       -1.84207262153385
H           -3.08393306701084       -2.42034211231188       -0.00382448269027
H           -0.80663464021048       -3.12712444216842       -0.89692378819514
H            4.87085436804458       -1.27392183684532        1.07540981117404
