26
 energy: -46.409731574218 gnorm: 0.000863708457 xtb: 6.6.1 (8d0f1dd)
N           -3.35473036418223       -1.66399881273731        0.56654489613991
C           -2.63532089001662       -0.47318743894379        0.52977365437168
C           -3.12571928093330        0.77503676870654        0.93975963416354
C           -2.16778416439049        1.73437333724399        0.66447103800877
C           -1.01805518454174        1.10952254288505        0.14984193847857
C            0.10740220701490        1.82072333306940       -0.34127281564275
N            1.37381623029148        1.51393818090489       -0.18491090796349
C            2.12329180357879        0.48740334541021       -0.03376617319361
N            3.37240931410501        0.55193834571649        0.45090085545647
C            3.76121102607824       -0.71058028940564        0.56698934602469
N            2.87542802997743       -1.66454126773569        0.27449558760563
C            1.79588678409145       -1.00994163692268       -0.15852501649768
N            0.69496793931061       -1.58435646849213       -0.48019297895506
C           -0.57581165455820       -1.31732744549518       -0.61948345944301
N           -1.27078926553046       -2.21732840304048       -1.35258930408153
H           -0.77762367375785       -2.96737864303398       -1.80482338940578
H           -2.25595608911393       -2.08823956932708       -1.50039955055893
C           -1.31887957981869       -0.30867931867797        0.06208704542791
H            4.75481723808415       -0.95990915203332        0.89592523563734
N           -0.10888647707434        3.04163684850013       -0.89429027721298
H            0.68162225952369        3.65223209417050       -1.01666381779557
H           -1.02986046275382        3.43921563467292       -0.84507802578327
H           -2.26245248947323        2.78336403258781        0.88195604380666
H           -4.10191986270634        0.95164023161654        1.35272837488578
H           -4.13455790348628       -1.62957889189676        1.20865674339331
H           -2.78632393671840       -2.48781156834291        0.71182136953349
