33
 energy: -58.032903120205 gnorm: 0.000905874278 xtb: 6.6.1 (8d0f1dd)
N           -4.71444555788221       -2.33313934681928       -0.02891603153816
C           -4.05407184324208       -1.39750011971006        0.08534559182813
C           -3.22260078511602       -0.28712912065589        0.18833521558621
C           -3.53993222658434        0.98938043648378        0.63259938860790
N           -2.49326171499939        1.82212190020810        0.58579812190998
C           -1.42772730172326        1.12528795996650        0.18007040915200
C           -1.81267732921521       -0.28154843930509       -0.08464402120082
C           -1.17750000862287       -1.35473319759768       -0.63488530801880
C            0.17995601522209       -1.76061083421143       -0.74136588663707
N            0.33244523876125       -2.96914385958080       -1.34743845158890
H            1.25576891485612       -3.29447376687897       -1.57739254422124
H           -0.46111065751628       -3.41663018588876       -1.77159670112551
C            1.31805058272563       -1.19707174872694       -0.15474669173823
C            1.70917725711490        0.20515825872464        0.07145455784639
C            3.03943998960219        0.17238645393785        0.53737536924816
C            3.46106548299622       -1.15691519064940        0.65388781744222
C            2.45277100916638       -1.98678600689969        0.19606186454331
N            2.54888973404886       -3.37627983213263        0.14983286349137
H            3.34756079708775       -3.71430203164878        0.67058757632836
H            1.70277940050134       -3.86059978228672        0.42063105390643
H            4.41285304520163       -1.47608951287563        1.03846151426546
N            3.84006683673383        1.25703292055936        0.88683960188126
H            3.34474645513797        2.02682149196205        1.31697266244910
H            4.64092072465340        0.97881475364533        1.43748168224925
C            1.09441531888391        1.42812601264264       -0.28662810189469
N            1.93534305387431        2.40674258341657       -0.69249469569370
H            1.59251488370320        3.34157324418146       -0.84219259806432
H            2.91535128452001        2.20896265087270       -0.80128782086177
C           -0.26206863129253        1.82761295008794       -0.13207701017670
C           -0.48307032204540        3.22329523092714       -0.21107941711580
N           -0.59672415976591        4.36329794139355       -0.30822910302166
H           -1.86463810161846       -2.13576484781495       -0.95613753810275
H           -4.49485012868162        1.33775271347268        0.98353124076501
