25
 energy: -47.485168389786 gnorm: 0.000255263463 xtb: 6.6.1 (8d0f1dd)
N           -5.29974099619604       -0.00420157239664        0.17812524501965
C           -4.15126422246999       -0.00314490422372        0.09782610372398
C           -2.76215200870492       -0.00204535041210        0.01389562119526
C           -1.93715784605562        1.14148544158961       -0.05468398226827
N           -2.39417888450649        2.40389397204229       -0.03525375619983
H           -3.38090074898957        2.57233069926851        0.05648886848042
H           -1.76260646870546        3.18370230693301       -0.01785045111592
C           -0.57270574201665        0.72952098148406       -0.11721149465322
C            0.44970720562224        1.62341106254626       -0.42160429607642
N            1.72714120760728        1.55806399798688       -0.20415519736047
C            2.72156774728169        0.78346884211215       -0.05709766660722
N            3.88898032685112        1.13307663736101        0.48245262396800
C            4.55357094598678        0.00401763209224        0.69599393618202
N            3.89078745332289       -1.12622874972822        0.48311415808301
C            2.72281884227490       -0.77880625216668       -0.05664522712671
N            1.72963670881790       -1.55508021238985       -0.20326753171073
C            0.45231292849009       -1.62260411504605       -0.42070383447058
C           -0.57153790370251       -0.73018628676225       -0.11682067471464
C           -1.93533007103553       -1.14429782347985       -0.05405752746076
N           -2.39033507917698       -2.40742536506546       -0.03396338004553
H           -1.75746194686306       -3.18625697822401       -0.01629501717183
H           -3.37678347076082       -2.57741091522541        0.05785913252524
H            0.15112553697474       -2.59724654762239       -0.80096685892902
H            5.57113228017712        0.00493277506237        1.04220677740871
H            0.14694721607695        2.59735059426407       -0.80241570017440
