33
 energy: -58.851450760455 gnorm: 0.000444107878 xtb: 6.6.1 (8d0f1dd)
N           -0.50479350993469       -3.94761890343956       -0.54220372119310
C           -0.30832716484024       -2.83430516321413       -0.34066707868518
C            0.08627695011203       -1.48589496249059       -0.13980693136096
C            1.47393016541651       -1.40390077220355        0.00415988195455
C            2.42319841653255       -0.41941189510863        0.18741103724816
C            2.44400883218271        1.04351834020428       -0.00355597493864
C            3.78265023651905        1.43938782009060        0.18973006186579
C            4.56506628231171        0.34817735838264        0.51868593775250
C            3.76471109710873       -0.79684612957227        0.50064506752235
N            4.23228781190695       -2.05889931202219        0.72435618505510
H            3.58604670556507       -2.78510992670568        0.98217564196288
H            5.15035946775505       -2.13263764560111        1.12856089087474
H            5.61413321447708        0.37022959272451        0.75029213916137
H            4.15948561686457        2.44600679634215        0.16781286560507
C            1.44794815688687        1.95701334725722       -0.35990587768475
N            1.85772837197041        3.18160007639933       -0.78148756041311
H            1.18933532263974        3.91287790366077       -0.94690318618518
H            2.83098038406516        3.38207743936675       -0.91225079041781
C            0.03039710982308        1.87604409056850       -0.25513817070672
C           -0.93089927414334        0.92720883229789       -0.05940449916813
C           -2.29819001997757        1.35561685236856        0.06193145400527
C           -2.73080486876122        2.67746680948829        0.08267703836821
N           -3.09864621018643        3.76905023989170        0.09852682966068
C           -3.12773311407568        0.23937163226307        0.15179105238098
C           -2.29639176818817       -0.93048542594411        0.07270645025723
C           -2.88547349591998       -2.19165784861518        0.17345996425458
N           -3.53057682806805       -3.13699029089754        0.29666005119230
C           -0.95622140875345       -0.54858019639748       -0.04191618368075
N           -4.45914907398908        0.21578522678133        0.28764296751347
H           -4.98047308902028        1.07340039583531        0.34246604239923
H           -4.94027299578524       -0.66631584186766        0.34143853924477
H           -0.41417137693789        2.86696298796692       -0.33921821661389
H            1.91293484384385       -2.39937841281090       -0.00068263623126
