27
 energy: -46.118551203830 gnorm: 0.000662382502 xtb: 6.6.1 (8d0f1dd)
N            5.02951556886675        0.06696776999532        0.75504227884159
C            3.74114626662730       -0.02142947480189        0.38018893508528
N            3.01990866228387        1.08562786621132        0.16296285267480
C            1.79035989413378        0.69733952284379       -0.20115747712809
N            0.84694170610244        1.55450806935039       -0.32390117374568
C           -0.46068875114320        1.60226353713733       -0.40656369922312
C           -1.44819293236004        0.73017236197526        0.01212376653866
C           -2.79737028971123        1.16624026566149        0.24588888359542
C           -3.60933925782306        0.06086882451220        0.44142371942601
C           -2.83230987972285       -1.09496310549771        0.27338518258546
N           -3.32564626071528       -2.36618025141493        0.30942871856594
H           -2.67571519384106       -3.12230145851103        0.44162586597481
H           -4.23695770239541       -2.49245367933240        0.71636895174347
C           -1.48249555094332       -0.73182542318977        0.03747361307692
C           -0.54102460928978       -1.65207878260450       -0.43511456696155
N            0.75392815476995       -1.66129166475622       -0.43011633778946
C            1.74054240755894       -0.83818571990650       -0.22354270611589
C            2.99420101649344       -1.21162484900847        0.22542639057282
H            3.34833920922892       -2.21162857753796        0.38008579540674
H           -0.95353940646117       -2.59592255421022       -0.79458875856018
H           -4.66625298172417        0.07918565047131        0.63571305693057
N           -3.21100484219649        2.46663110485271        0.26611243496259
H           -4.10913257766689        2.65212284845314        0.68013416996347
H           -2.51376071995556        3.17948098335099        0.39616612344522
H           -0.79975556399487        2.58003733162721       -0.74941706006822
H            5.59854034946070       -0.75924144176890        0.79584675326284
H            5.46821410121787        0.97028101349905        0.71326232854029
