33
 energy: -58.052330919192 gnorm: 0.000759250941 xtb: 6.6.1 (8d0f1dd)
N           -3.64400108526926       -3.28801061067181       -0.61754719905530
C           -3.15546221013172       -2.26909475234981       -0.38983880121995
C           -2.58798501624176       -1.03267432629490       -0.12081972082023
C           -3.27445934488543        0.10068275222500        0.39816850565062
N           -2.46031341666948        1.15360217137632        0.53101525384159
C           -1.22894139234523        0.77027103741692        0.15575458650960
C           -1.23262964183858       -0.65810888903862       -0.24250404736579
C           -0.27805397992233       -1.50948751644286       -0.75770806016576
C            1.12035583337792       -1.56151724670975       -0.69381869080607
N            1.66582999461974       -2.65705861024007       -1.27995899406969
H            1.08041735600638       -3.32528965650014       -1.74894689846578
H            2.66525079563136       -2.76065137089398       -1.31650458225936
C            2.02908556372610       -0.71786665465652       -0.00602266156125
C            2.05489872865801        0.73528280927425        0.13911663140373
C            3.33066853311660        1.06072944627842        0.64639236143422
C            4.04099892743059       -0.09698323023625        0.89473770162745
C            3.27765161773722       -1.18437207233095        0.46116049504352
N            3.71360663678419       -2.51286014054106        0.51851763374125
H            4.53198622722498       -2.60933382743209        1.10555634639192
H            2.99338990960591       -3.16856221964697        0.79484800016812
H            5.01441600648575       -0.16111220130560        1.34621838688557
H            3.66189944958935        2.04425334581589        0.92837711427881
C            1.14128625269294        1.76196309072541       -0.16507086177097
N            1.68169815626116        2.95626466851229       -0.50685387540662
H            1.11268642188517        3.78741853702128       -0.50746514576774
H            2.68115109485705        3.05323158454429       -0.53768781964788
C           -0.27523303864705        1.76959381488271        0.00053677134692
C           -0.84860049677281        3.06196713091865        0.10243128997606
N           -1.25754973685942        4.13469125489959        0.15847328602902
H           -0.71414221145466       -2.40376641505538       -1.19847232397249
N           -4.56691766070607        0.16396450866705        0.73320498316190
H           -4.93508936720758        1.03578433666277        1.07007568710518
H           -5.17431816323776       -0.62049485077330        0.57648864805882
