27
 energy: -46.936728167272 gnorm: 0.000874443048 xtb: 6.6.1 (8d0f1dd)
N           -2.15726738545743       -3.52343338533393       -0.44471534518502
C           -1.52314917070146       -2.57231948502424       -0.35085413123543
C           -0.68737553668242       -1.42986625570046       -0.22635984104179
C            0.67069796267499       -1.71785175552155       -0.27727723900701
C            1.85544122687844       -0.99868751128790       -0.26054186637993
C            3.04839729506158       -1.70459086605021       -0.54759267648678
C            4.11704532828256       -0.83575475736137       -0.53362620619833
C            3.64521996960084        0.43022518607718       -0.18366037657611
C            2.25629646376297        0.39352739360657       -0.00001838004962
C            1.53814866868561        1.53455004800337        0.43154575601507
N            2.28983965427681        2.56741166372820        0.89257105874741
H            3.27507611036279        2.46152495390042        1.04043201964738
H            1.84511788165945        3.41687299163726        1.19153565815742
C            0.16535393851524        1.83625149969658        0.40198890812917
C           -1.00803649615927        1.18140384522000        0.11602889432128
N           -2.14642960948174        1.90610696525622        0.13546802807755
C           -3.12558301662070        1.02790430549961       -0.08827475760281
N           -2.73048106367036       -0.26146264948454       -0.23968980267783
C           -1.40921718231523       -0.23169526547705       -0.13370873371964
N           -4.41313452057088        1.36499728545976       -0.15371239591551
H           -5.09287217311309        0.64599972761851       -0.32282470347882
H           -4.68262094832495        2.32469492986287       -0.04011666113608
H           -0.04581510945193        2.87162393297724        0.65702730755875
H            4.27884412313370        1.29794002652524       -0.13083893784570
H            5.14091963598757       -1.08014383107803       -0.75063293015193
H            3.08933604697968       -2.75406443462889       -0.77460273017146
H            0.84877881418721       -2.78153398872072       -0.42181558779879
