30
 energy: -50.885481161325 gnorm: 0.000451480502 xtb: 6.6.1 (8d0f1dd)
N           -3.69203679077221       -1.88481678294035       -0.73203325623931
C           -2.99958136903782       -1.02347325237710       -0.41016227772963
C           -2.25935396501958        0.12071358976960       -0.11499306426258
C           -2.83816319457817        1.42759938036055       -0.21720259696169
C           -1.84358753864412        2.35854849214143        0.07220400655283
C           -0.62383373256572        1.70200222205117        0.27189767584776
C            0.53547228295984        2.43032404518519        0.51124281948055
C            1.88225731468824        2.14414314560530        0.38036612371452
C            2.60094280882957        1.01298218391540        0.02474130696798
C            3.93693906383165        1.14570306147516       -0.42840754734517
C            4.43170513969073       -0.09412753337448       -0.75756913340861
C            3.46423441764232       -1.05649440918758       -0.43026664442255
C            2.31577318225967       -0.42362040091149        0.04292779300959
C            1.24190403082453       -1.16122452001784        0.61012950961523
N            1.59059338633897       -2.36769270189697        1.11637935902574
H            0.89013746185476       -3.02192300870895        1.42384795499775
H            2.55468440200321       -2.64618178498734        1.11237840374549
C           -0.14076396835226       -0.86403723938257        0.61661037487541
C           -0.94606001466951       -1.92470367568909        1.10089556906367
N           -1.54302688086757       -2.77820042881250        1.58853091262598
C           -0.90155156078255        0.24615532193056        0.20107699047514
H            3.58330843488374       -2.11263853817861       -0.59891284042963
H            5.39584767916752       -0.30496574230570       -1.18325321197453
H            4.44257428136311        2.08615209891377       -0.54809359917785
H            2.51466059269233        3.02384294907366        0.46122527066274
H            0.32829776895568        3.48004875309900        0.69559625191008
H           -1.97498136219756        3.42446683336611        0.07833638776735
N           -4.12033411294100        1.66042766216980       -0.53507168342681
H           -4.72809136960422        0.88737394996320       -0.74723498422583
H           -4.46938381176929        2.59878768683206       -0.61073892045816
