30
 energy: -54.904508985993 gnorm: 0.000605651055 xtb: 6.6.1 (8d0f1dd)
N           -4.41318783212374       -1.19792632477153       -0.17509338692978
C           -3.45975160444672       -0.56377599770326       -0.05851393753300
C           -2.38933329766217        0.32027243037819        0.03288597747629
C           -2.54291313751821        1.73300551174817       -0.20793162018166
N           -1.39232561265968        2.39715012156476       -0.11001463117413
C           -0.44754713083683        1.49477461185188        0.18916347197353
N            0.69921244932097        1.88333299988719        0.63328473928925
C            1.91954205033730        1.43377213568925        0.70826918939483
N            2.72240574816140        2.02631367592204        1.61259657377887
H            3.70968306362459        1.84003961345621        1.59210605041235
H            2.37083444091631        2.80469980960807        2.14440940477032
C            2.49672726704237        0.50172035799248       -0.20286629310562
C            3.74258240351202        0.66497835763897       -0.80645526311587
C            4.00911822387995       -0.45821237378825       -1.58910523327124
C            2.98161206012409       -1.36878344679650       -1.41142383548224
C            1.99314319825830       -0.80156776338765       -0.57921408743405
C            0.91450737070934       -1.55946485791445       -0.05333717440408
N            1.12746638285012       -2.89489922764868        0.00364402615544
H            2.01196828912492       -3.26215511063303       -0.29859419455327
H            0.37421093919476       -3.52933088929478        0.21403215632761
C           -0.38657279052149       -1.13516903878088        0.33276546555123
C           -1.25199961541574       -2.17380537962296        0.74777467085231
N           -1.90305581897945       -3.03095493961328        1.15278718953115
C           -1.02178393247437        0.10808330316868        0.20172062676710
H            2.91364322438568       -2.32044189731219       -1.90886880857059
H            4.87480544291784       -0.59971938713926       -2.20964430565109
H            4.35743388592006        1.54435721130381       -0.73514704164315
N           -3.69281474180694        2.33387681237351       -0.50625259933000
H           -4.54655579846164        1.80337289727229       -0.54517075359579
H           -3.69424991627344        3.32125959545276       -0.69410920150782
