27
 energy: -48.512337962538 gnorm: 0.000345429452 xtb: 6.6.1 (8d0f1dd)
N           -6.30485248426110       -0.86095105187718       -0.30834024464533
C           -5.19531182451532       -0.58204672753029       -0.22495257267311
C           -3.83794156455411       -0.24013974933204       -0.12320664383160
C           -2.76872236429453       -1.16115218823642       -0.01798649576846
C           -1.56724942211647       -0.46794069208759        0.05042229456854
C           -1.91251127853275        0.97912949020603        0.00729958846126
C           -1.17749207598785        2.13528773532633        0.10204157953892
C            0.18660658183338        2.44471041367924        0.18755859509477
C            1.36804806647172        1.74802699211357        0.11466311046284
C            2.58887918151155        2.48061452435076        0.07554998597465
C            3.63642106756337        1.62521605258697       -0.10966846825278
C            3.13492306259927        0.29035856615910       -0.14529830171231
C            3.99307253515119       -0.78989553132735       -0.39065130046791
N            4.78326771293719       -1.58296553754578       -0.64686079225069
C            1.74537267106731        0.31154824735178        0.01193206371587
C            0.98684092696448       -0.86870067417889        0.14458812238462
C            1.74362793643752       -2.06532286750924        0.32355052354616
N            2.23926890324283       -3.07636499695551        0.53654176545346
C           -0.36944465226745       -1.17128952662549        0.16181728761223
H           -0.54772706421001       -2.24058795063663        0.25338143806548
H            4.67467433102254        1.88103944213797       -0.21561893372883
H            2.64985417754618        3.55077697493309        0.14122567122886
H            0.35605016800652        3.51413376036977        0.27645674063359
H           -1.80376745905544        3.02286224341574        0.09918297845900
C           -3.32129656557173        1.04688734834586       -0.10053905695718
H           -3.89377219408935        1.95405666754942       -0.15402917655838
H           -2.87893872589893       -2.22958290488325       -0.00557059965368
