28
 energy: -51.428731215835 gnorm: 0.000872004704 xtb: 6.6.1 (8d0f1dd)
N            0.12330498835131        4.40373163807836       -0.48994943050049
C            0.16081576789804        3.27215728428255       -0.31232956941955
C            0.09131006310506        1.86057919531036       -0.14153979677772
C           -1.23161959564025        1.36807985099645       -0.27622251997729
C           -1.79383084222518        0.14568138899598       -0.09121632071528
C           -1.31863537230659       -1.23284136510598        0.02249058091053
C           -2.46344101349068       -1.97365825376947        0.27222480866192
N           -3.59321712082565       -1.23224614493082        0.35363758638046
C           -3.24745848468752        0.00862322224364        0.08956838806145
N           -4.15450328504480        0.99892584881236        0.05899564499660
H           -5.09063522212593        0.77351810621358        0.34585088096895
H           -3.88972430653316        1.96273725179335       -0.02833029427615
H           -2.53981769733644       -3.02878768072756        0.46667766902515
C           -0.06230058897845       -1.85135846311529       -0.25619484904236
N           -0.15458959963370       -3.12591809770129       -0.69650964121650
H            0.67588317036741       -3.67523257327947       -0.84947256956256
H           -1.05332897867980       -3.53642585295079       -0.87353932858667
C            1.24560415011130       -1.36139208490826       -0.06280780498130
C            2.26127948159819       -2.32214504760772       -0.28258323799076
N            3.06594670136052       -3.12047739267513       -0.47894350292468
C            1.77810940731549       -0.11999803222890        0.35511125143325
C            1.27962176546842        1.28624183452230        0.25658710204593
N            2.27897814588811        2.13857650215083        0.59297731954336
C            3.32546099709862        1.40626820092876        0.92241440969942
C            3.09527874368016        0.02825512991856        0.76028567942117
H            3.80239509597033       -0.75534383948798        0.94809538047535
H            4.22655201526175        1.87411396372305        1.27713134178176
H           -1.93752947006694        2.17198715481857       -0.46900827193359
