33
 energy: -58.042727178999 gnorm: 0.000592710274 xtb: 6.6.1 (8d0f1dd)
N           -1.71446634097878       -4.18182354176313        0.64220864891433
C           -1.28812763633233       -3.13541103916550        0.42841853562128
C           -0.72274453281809       -1.86484072114417        0.17282676801821
C            0.66767517558080       -1.90616233347284        0.09567592273020
C            1.69285195539792       -1.00701959297957       -0.12449588842961
C            1.80584416796114        0.46210382156240       -0.04205902778353
C            0.87684138580994        1.45596444020777        0.26090261357888
N            1.36521402729050        2.60623463333026        0.79051958219607
H            2.30689605838717        2.62627139577503        1.14347396691745
H            0.74407670370963        3.37171646467831        0.99103104141331
C           -0.53335089027187        1.52468982218729       -0.04670617714538
C           -1.01036060170456        2.85651507258546       -0.16303740651014
N           -1.32298014596402        3.96020237412780       -0.24288850940800
C           -1.54980009115970        0.61582438680206       -0.25598042111112
N           -2.75914443311372        1.14307518179858       -0.55508785589454
C           -3.63858234481898        0.14210057433041       -0.54146210615170
C           -3.02498934549871       -1.10456827302848       -0.22985188285117
C           -1.67790782850901       -0.85700463207526       -0.07670228275293
H           -3.52355719949132       -2.05189580941523       -0.16851403673407
N           -4.93336982236760        0.34548152441771       -0.80907469778613
H           -5.59811616426076       -0.40268952240743       -0.73537542252227
H           -5.24363141166751        1.28287325741595       -0.99505036642653
C            3.19326818217042        0.75418771338135       -0.19546041691010
C            3.90296283938598       -0.42669584208999       -0.37938077729832
C            3.01877794777802       -1.49959002265590       -0.31035796408116
N            3.40131848600053       -2.81050476760069       -0.38843065403101
H            4.32987537546845       -2.97965553706438       -0.73728885123074
H            2.71482338830151       -3.49486172008625       -0.65778116191886
H            4.96217456409510       -0.49631035814496       -0.55081502548844
N            3.78915150087512        2.00975420562237       -0.22165219113485
H            4.74048167487765        1.97183315083978       -0.56316311394243
H            3.25102965794758        2.72470761089395       -0.69399416503282
H            1.02944333923157       -2.92556283324514        0.21068383097453
