30
 energy: -54.881546949510 gnorm: 0.000870187150 xtb: 6.6.1 (8d0f1dd)
N            4.79013838465434        0.67529773283146        0.00138052063805
C            3.84204218041676        0.02665887985454       -0.05529207585945
C            2.74399709737512       -0.82464553852708       -0.19437976089430
C            2.84019144143808       -2.08897050576348       -0.85034558329991
C            1.60627942749140       -2.67789357444857       -0.93255108851074
C            0.67027284197945       -1.83472858481028       -0.28670088580926
N           -0.47388429724392       -2.25275716972065        0.12666575299320
C           -1.60510823723443       -1.75735450785784        0.56225203999304
N           -2.32365800153389       -2.53500932515921        1.39295631543438
H           -1.98236916938736       -3.45023782030958        1.63386566882977
H           -3.26991254031043       -2.28158727047056        1.61598774178111
C           -2.19198163825172       -0.57384961697367        0.05187121166900
C           -3.53364376223124       -0.43062781799186       -0.29157467276981
N           -3.81049425262787        0.79224560576489       -0.75634849781389
C           -2.68604127418627        1.50266861267583       -0.66489443985984
N           -2.68755809281162        2.84174371525964       -1.02402901124338
H           -3.57345043683973        3.08781625814506       -1.44814090249677
H           -1.90278721621534        3.12802989776415       -1.59572087861504
C           -1.58968737264330        0.73295400272398       -0.17639194069099
C           -0.38355744585219        1.28874782781668        0.29256030738787
N           -0.38809364242884        2.62908028278033        0.47630007282903
H           -1.26735610027742        3.12179373542520        0.44632532410656
H            0.42984184956898        3.09449461883363        0.83419634241751
C            0.88364299165724        0.65358793475567        0.53045768357965
C            1.83076762300767        1.49333217124635        1.16161046419645
N            2.50855887690578        2.18671094764720        1.78006073191649
C            1.39746393560344       -0.57118228056150        0.09043764657982
H           -4.29213268541333       -1.19239707873238       -0.29017779438504
H            1.37211883957030       -3.64013687706689       -1.34287707793158
H            3.76477109812309       -2.49064007442816       -1.22582432917110
