28
 energy: -51.446744156732 gnorm: 0.000684474141 xtb: 6.6.1 (8d0f1dd)
N           -2.05061009396239       -3.53848935674110        0.66212728911760
C           -1.66751247217837       -2.46295710899381        0.55184485475462
C           -1.10596365020454       -1.16294675650087        0.43238402550196
C           -2.05797745514130       -0.15258954242645        0.34680179022748
N           -3.34234938990453       -0.48186202577787        0.21599779267402
C           -3.98758325243457        0.61058110254652       -0.23835192198429
C           -3.12809396612653        1.72465261754623       -0.38687243239824
C           -1.88939625297806        1.32779560245915        0.08610651534096
N           -0.90993170501843        2.14162571348725        0.37413373023226
C            0.35285759865533        2.11226234739007        0.60869472824165
C            1.35445440859608        1.18720021646111        0.26055679136440
C            2.68670401683110        1.55596042834138        0.18146508133002
C            3.47881821348031        0.43002370820754       -0.13164887897670
C            4.85992743160981        0.40557745210120       -0.33288529406148
N            5.99383567712210        0.34789697301911       -0.51578155978011
C            2.64282123092219       -0.69310543702222       -0.19463700077530
N            3.06710599554630       -1.95052920343749       -0.43968326118445
H            4.03353494633932       -2.09568548860369       -0.67536266484448
H            2.41991678464163       -2.69957098189349       -0.60495268974118
C            1.28429688333518       -0.26899104202647        0.05427481499359
C            0.29316380079968       -1.19576228795653        0.24872991848652
H            0.64890362624397       -2.22372121366618        0.22306748026395
H            3.06740592964411        2.55295032796365        0.30694338182282
H            0.72196839644772        3.03264356442634        1.06138121676263
H           -3.40876846554342        2.70797528559116       -0.70509324319134
N           -5.29677958736802        0.56217777220162       -0.49331213771855
H           -5.79266568344222       -0.28947496185380       -0.29405808525415
H           -5.77912193881576        1.34986029725739       -0.88677390390543
