30
 energy: -56.483509071131 gnorm: 0.000702479094 xtb: 6.6.1 (8d0f1dd)
N           -6.72026169889963       -0.76805731659026        0.22726537865553
C           -5.58592709017544       -0.59569670536191        0.21250427132457
C           -4.19946625656957       -0.38222185503956        0.19294078936196
C           -3.21739886857405       -1.36874299876438        0.31986762678071
C           -1.94825316508103       -0.77224758934222        0.23224728517216
C           -2.17895396529192        0.67745069532766        0.06047185366377
C           -1.33693354314640        1.77559963565569       -0.02396330253642
C            0.03587900886889        1.98095304626262       -0.11394883524395
C            0.32654283288842        3.37557667325811       -0.16091149659503
N            0.50810515309230        4.50761815783688       -0.18122781327029
C            1.18003740594401        1.16522812424178       -0.23378476726395
C            2.41490797907965        1.74553198184098       -0.49770035504788
C            3.39687458720788        0.75054825017159       -0.61615281884486
C            2.76741539538074       -0.51053992277321       -0.38020569351966
C            3.51875403726002       -1.68353378345499       -0.49839910834310
N            4.27426852972709       -2.53239354934990       -0.67389029095588
C            1.40269703430331       -0.30646273392051       -0.12814452051082
C            0.56327357867177       -1.37450632459928        0.21943134918826
C            1.23037417770226       -2.60446200416399        0.49758075090338
N            1.66220366181175       -3.62140944953234        0.80271178900564
C           -0.81619002490561       -1.55653334737278        0.35273565642142
H           -1.06471956449211       -2.59179763095665        0.57755058341470
N            4.68833032663343        0.91737355017916       -0.90042681257807
H            5.29302049362328        0.11445622647083       -0.97140531921374
H            5.06523515701879        1.83626177565270       -1.05714824020527
H            2.59619747978479        2.79638798496424       -0.62064982164829
H           -1.89259077508746        2.71098540475636       -0.04296894301216
C           -3.56643172958716        0.86170201744802        0.05027620457181
H           -4.06929846315570        1.80530979890235       -0.05419155306943
H           -3.40260668413460       -2.41861836954780        0.45190589349226
