26
 energy: -42.400357741390 gnorm: 0.000681501249 xtb: 6.6.1 (8d0f1dd)
N            5.01198508751882        0.20675160171811       -0.07202058644508
C            3.67205003697455        0.18248123066369       -0.03154440336814
N            2.99968266363890       -0.97244885513341       -0.05476185819720
C            1.68369257347813       -0.67189603715021       -0.01814679218370
C            0.82347242336873       -1.74761503663705       -0.01793665690911
C           -0.56393892273434       -1.90327366610936        0.01267728044210
C           -1.63597623604814       -1.04712325994733        0.02948833433892
C           -2.96224468036217       -1.55555353936355        0.03584845344358
N           -3.88208707988950       -0.61219529563936        0.02936791490357
C           -3.22740131223154        0.57392789815389        0.02671266247434
N           -3.95777289295565        1.72926395875409        0.07825242326719
H           -3.54790171799782        2.56168371388895       -0.31188467388870
H           -4.93673785766230        1.59671969471326       -0.11971132407698
C           -1.82479230856867        0.42004542232435        0.03256055707498
C           -0.96147460916329        1.50904828950825        0.06159102468525
C            0.40529521934783        1.67397544347951        0.06593222433767
C            1.51170622034439        0.81535889132934        0.02837259376759
C            2.80520587570790        1.30295217056767        0.02224149250462
H            3.11156759994090        2.33119788348983        0.04861626111191
H            0.71538461524061        2.71480079415477        0.09820964689703
H           -1.49573039182033        2.45494923657583        0.09580046500719
H           -3.24285743802142       -2.59357657585377        0.03464284927769
H           -0.86987980679510       -2.94643516913976        0.01656557166635
H            1.37573802344752       -2.68072353086331       -0.04599840880187
H            5.51584409149310        1.07091589273309        0.00526932148396
H            5.50831962394873       -0.66644289871746       -0.07333989021318
