27
 energy: -42.910933623434 gnorm: 0.000668049084 xtb: 6.6.1 (8d0f1dd)
N            2.87241725728680        3.09540281966429       -0.14713050200192
C            2.17009258057902        2.18837907519271       -0.09564467669335
C            1.24763085124527        1.10940621308245       -0.03522702920215
C           -0.05636497776271        1.57622359946591        0.02971554640377
C           -1.33373446149724        1.02284846989279        0.05486743812890
C           -2.44750807185207        1.84883305427063        0.09722070627460
C           -3.62858401316393        1.08848960148762        0.06049535537447
C           -3.29764295354113       -0.24828184467889       -0.00621920668569
N           -4.19433287501327       -1.29056652457705       -0.00707002597787
H           -3.90551212442972       -2.15361052875313       -0.43903250073121
H           -5.14525812782284       -1.02863058132310       -0.21309682052020
C           -1.85616580611728       -0.37406306616089        0.02065812633957
C           -1.26763923570092       -1.59863360937782        0.07093339365532
C            0.06002326493259       -2.08561146461238        0.11943021693211
C            1.31096213654473       -1.54582325166071        0.06637493625630
C            2.44726146006489       -2.41727875546230        0.07645433735935
C            3.58716060358010       -1.67587255272601       -0.03330529170421
C            3.23653703649682       -0.30303940913367       -0.10079782670123
C            1.86597664256268       -0.16566087139568       -0.03739429655819
H            3.94088901370131        0.50396841234886       -0.18239861022033
H            4.59417885476851       -2.05165468725684       -0.06354103692721
H            2.38078945270354       -3.48737059502704        0.14467035837659
H            0.08531362919819       -3.16986603959889        0.19323507305586
H           -1.98226588246513       -2.41689535641185        0.09254149297630
H           -4.62726337275339        1.48610248286484        0.07543303336981
H           -2.41387359633266        2.92238248914535        0.13610704596374
H           -0.10177367381209        2.66348977184095        0.04777974745696
