27
 energy: -46.925572255815 gnorm: 0.000871037513 xtb: 6.6.1 (8d0f1dd)
N            5.80604879389284        0.51251807073830       -0.18857405979043
C            4.66342998194359        0.47683276183548       -0.06048169718968
C            3.27714553664417        0.38464223116699        0.06996125060432
C            2.37516065878526        1.43300567876748        0.28233016903464
C            1.07504681900457        0.92409872554503        0.29838459247458
C           -0.03892846073466        1.72958412300388        0.52031632302164
N           -1.26611799859949        1.58855075696725        0.13398271110997
C           -2.13653067574685        0.68057572144654       -0.13491710128014
N           -3.29605888791120        1.00941377771581       -0.71790640743173
C           -4.11324085928438       -0.04486174465506       -0.56267942332370
N           -5.36969559731472       -0.00193515335432       -1.02214191246853
H           -5.69225389338459        0.85339507858777       -1.43985603021553
H           -6.02302593701680       -0.73228515681886       -0.80446101773631
C           -3.48474089857904       -1.14342779683735        0.07724778232929
C           -2.17258242348162       -0.76833178455797        0.29868157294114
C           -1.12351889153863       -1.65125631370341        0.55276381056176
C            0.25063439813868       -1.55773786864587        0.41914452489498
C            1.16798646136182       -0.54047419277165        0.16348066739260
C            2.54991851232987       -0.82875279542656        0.01789988649432
N            3.13317367590820       -2.05699013357482       -0.09541200793596
H            4.10634449025505       -2.06881529183645       -0.35492351161348
H            2.57941696225192       -2.82629330167449       -0.43016015936071
H            0.73471017951650       -2.52513165748945        0.52599592588005
H           -1.47592987015990       -2.65998462879308        0.74890184481138
H           -3.93655815995305       -2.09616100740549        0.27406435266707
H            0.15741337432519        2.70370210825022        0.96628761066291
H            2.63945594424620        2.47082155321782        0.36490930936610
