25
 energy: -38.687001432418 gnorm: 0.000836975783 xtb: 6.6.1 (8d0f1dd)
N            4.69894183389549        0.11115516009834       -0.01001441027100
C            3.36045680583252        0.00346979277159       -0.00287369288474
N            2.57876167561862        1.08882927378866       -0.00252253576339
C            1.29887162989463        0.66346935225078       -0.00210021456442
C            0.33578755265521        1.65304985961129       -0.00120130783114
C           -1.05489654140338        1.68261421768114        0.00017729844353
C           -2.06478636215796        0.74381795478698        0.00084037055828
C           -3.41585913916742        1.16889168840313        0.00206966905183
C           -4.24659493329955        0.06999887790810        0.00233122376194
C           -3.45462335122449       -1.08587091496514        0.00127852111101
C           -2.10600868973508       -0.73745663184498        0.00036390602834
C           -1.12813299512402       -1.73799697006936       -0.00072267886247
C            0.24276735641773       -1.78074993511555       -0.00165242225476
C            1.26941386064364       -0.82537113950688       -0.00207670135418
C            2.60385619036756       -1.19235989777149       -0.00258555570469
H            3.00284803443251       -2.18881116876616       -0.00285676000095
H            0.64566934683388       -2.79003128025047       -0.00221553798199
H           -1.58207708414108       -2.72596883305785       -0.00079916656462
H           -3.82868378893117       -2.09429877198813        0.00119219781908
H           -5.32209631223856        0.08831710169875        0.00318919809248
H           -3.72628326266794        2.19822832524985        0.00266709261631
H           -1.44619071480680        2.69697066137439        0.00068039997970
H            0.80176361637723        2.63290957813465       -0.00167299864792
H            5.28368731311881       -0.70296147296256        0.01842440425748
H            5.10753065790958        1.02787547794092        0.01033191336628
