29
 energy: -51.166648040472 gnorm: 0.000712536070 xtb: 6.6.1 (8d0f1dd)
N           -1.97461969884368       -4.03439930751666       -0.01413797578539
C           -1.40886925689726       -3.03476574202726       -0.00646569498555
C           -0.67690673825522       -1.81958111308104        0.00177917863337
C            0.69742174400281       -2.04430196781397        0.00625779408144
C            1.84738329197047       -1.27511574341717        0.01032895460771
C            3.09729442544888       -1.90735048827317        0.01230047596896
C            4.12053160314462       -0.96722532524363        0.01864406409804
C            3.55937382630623        0.30692109714501        0.01966970008750
N            4.27510885309935        1.46344179304344        0.07888899517656
H            3.83452496644011        2.33500942927096       -0.16120672151819
H            5.26050703388244        1.40001404193139       -0.11128499954470
C            2.12565658044839        0.18419685654584        0.01907466797833
C            1.33230359306788        1.29514011457684        0.02997007595291
C           -0.05240756607344        1.55752967471402        0.02287538595107
C           -0.32329529901274        2.95437153954628        0.02324403598904
N           -0.44445207903009        4.09530450811950        0.01970268869599
C           -1.21300928739724        0.79181059638306        0.01187726168492
N           -2.36463720811289        1.47840493713517        0.00666753418862
C           -3.36563688118369        0.58629228336847       -0.00446284463194
C           -2.88161866918125       -0.74698364232203       -0.00705347896269
C           -1.50181265608627       -0.67416358670145        0.00275356089896
H           -3.48570925313959       -1.63253614259709       -0.01527775482807
N           -4.64024444456482        0.98201782482606       -0.01274484354888
H           -5.38964148001934        0.31399698880520       -0.02019073247728
H           -4.83614092346424        1.96804441043923       -0.00888270986011
H            1.89135932902975        2.22836738832889        0.05079488035234
H            5.17383641729931       -1.18073614665917        0.02099146526487
H            3.23830840371773       -2.97291198007427        0.00664715630322
H            0.93005756310305       -3.10770486395283        0.00385990213001
