33
 energy: -58.047367204293 gnorm: 0.000732415126 xtb: 6.6.1 (8d0f1dd)
N           -4.38182092622890       -1.49703909098030       -0.98073580908451
C           -3.58561168070413       -0.76293254782904       -0.58910391825410
C           -2.71351442344550        0.24241539598611       -0.18656445502847
C           -3.12406509340753        1.63309631537517       -0.11114182876497
N           -2.13033728848964        2.41771634794497        0.24105050446446
C           -1.01355594732181        1.63677549335257        0.36366646224806
C            0.13921615313492        2.26854878335265        0.74022213752782
C            1.50037180007113        1.91985702293233        0.69554341689326
C            2.19900345074451        0.84551513626194        0.22403235807442
C            1.84169736799633       -0.52829697947336       -0.14777164773424
C            2.99106563451137       -1.09476429988779       -0.71368716617836
C            4.05560819818458       -0.15710618510013       -0.68764115508635
C            3.62019256415576        0.98645496716603       -0.07446162890091
N            4.39465756092160        2.08134921225060        0.19785344052950
H            5.26224461275641        2.13984717241573       -0.30990674886855
H            3.93500988874006        2.96435806369866        0.34586654868805
H            5.03983157844252       -0.33769203828603       -1.07934622128189
N            3.14358320453007       -2.35494506125330       -1.24314693637321
H            3.93038054286738       -2.45591975963263       -1.86602409540709
H            2.30267084099928       -2.81067474341529       -1.56418522652102
C            0.72046038230557       -1.31913946483707        0.23508078945373
N            1.00567686731789       -2.64216571408319        0.42259043303003
H            1.95724309602656       -2.90784406679798        0.60834179596734
H            0.27445118659816       -3.24846430439433        0.75928531919222
C           -0.63891798620338       -0.97964350255603        0.34305000393837
C           -1.48815694725453       -2.04595181180418        0.70945711759044
N           -2.13803392815698       -2.92001645363725        1.08382133723861
C           -1.35706762349451        0.22169312860623        0.11037626286500
H            2.12991833288933        2.75312585919469        0.99242355347589
H           -0.04392499244510        3.30348501336230        1.00655064733952
N           -4.36304060786354        2.06740607781651       -0.36785409327636
H           -4.56679964852728        3.04780964041076       -0.29451677540677
H           -5.08038096455125        1.41526070283968       -0.63216841774978
