30
 energy: -54.905990185627 gnorm: 0.000635216215 xtb: 6.6.1 (8d0f1dd)
N           -5.84053159524272       -0.04551057507525        1.29354413932965
C           -4.75785611313649       -0.04081382875838        0.90688377132210
C           -3.44527082281884       -0.02942604146419        0.42807294524873
C           -2.80989904567044       -1.07531730659046       -0.26236893278532
C           -1.49895388699444       -0.69231380632873       -0.51937429953191
C           -0.55932765247377       -1.48421992110145       -1.25387405014920
N            0.64275121024383       -1.76190149990492       -0.84702081298459
C            1.55271025114028       -1.24741373221744       -0.08976951352207
N            2.49807857351667       -2.01373176793184        0.45630948706662
C            3.45797339829088       -1.18009743709499        0.88691164348599
N            4.54936988688833       -1.64588381920160        1.49460367898338
H            5.28784872895430       -1.02732460480098        1.77817936709684
H            4.63073198134477       -2.63608242611434        1.64785647281215
C            3.15722464014569        0.18937315494002        0.63201777458832
C            1.89752758443843        0.21237732228317        0.08310949614510
C            1.13995951567571        1.36717342454114       -0.21287643312317
C            1.93832091077438        2.52884774513010       -0.29863477650595
N            2.59114731136815        3.47133726828007       -0.39631803214524
C           -0.25304471665284        1.58303257398790       -0.23966912206074
N           -0.65326983945372        2.86640251845903       -0.40262154382982
H           -1.63345795514856        3.08429555636259       -0.37427122709232
H            0.01825356609721        3.61654157717055       -0.40958912458078
C           -1.31712542505947        0.65231115374403       -0.02570034683248
C           -2.54674072678850        1.04005684586178        0.52374857238487
H           -2.76225672002483        1.96867715149875        1.02212431407607
H            3.77553908032157        1.02455340172639        0.89667331526899
N           -0.98860526048046       -2.11207143037387       -2.36368526654280
H           -0.39243376971778       -2.79233894561902       -2.80459951399902
H           -1.96080464192410       -2.06540796605761       -2.61423792984226
H           -3.24743849901166       -2.03109046935068       -0.48690933698176
