29
 energy: -51.151016849519 gnorm: 0.000716274949 xtb: 6.6.1 (8d0f1dd)
N           -5.63823731005919       -0.16127935011220       -0.33923918330635
C           -4.51734236169495       -0.26922473603414       -0.10633042565114
C           -3.14420943685435       -0.34904385731090        0.13428183387230
C           -2.44627377281788       -1.38679323269346        0.73381648127844
C           -1.07176890749482       -1.08934911255439        0.68379030934549
C           -0.11200285486998       -2.01813927513172        1.07042908903370
N            1.02945943112403       -2.24872491115306        0.49613677286033
C            1.94722403788804       -1.63953502301488       -0.15961824235787
C            2.97300642582833       -2.31929436045983       -0.86389927686275
C            3.98292802178922       -1.42276189893518       -1.10982802904915
C            3.62294262863067       -0.13414671212434       -0.64046388109040
C            2.34775865426184       -0.18330514173596       -0.12379604302964
C            1.56779847363416        0.94346421813874        0.21372081773560
C            2.35440022134879        2.11202961741469        0.34387275060173
N            2.98312748124021        3.06412165533577        0.48951044324794
C            0.16998549886695        1.16697553723156        0.26814409960843
N           -0.19965307283755        2.46564936107625        0.42065672780925
H           -1.16237378270956        2.68902227606985        0.60675877308473
H            0.50095286384865        3.17293134983967        0.56928711135127
C           -0.92106024096819        0.25599302594359        0.11763428275723
C           -2.21657807486098        0.67898771379039       -0.21537660676773
N           -2.61488389344808        1.88268247796686       -0.76485639119065
H           -3.56256334744087        1.87338318363577       -1.11634404385325
H           -1.95935586737506        2.31938453667155       -1.39650688255888
H            4.23210471793492        0.74508446221868       -0.73463853280632
H            4.91635626003441       -1.64914688516541       -1.59426631414422
H            2.96419331425713       -3.36937211404858       -1.07892028466261
H           -0.41545882454974       -2.79316867833157        1.76989221858238
H           -2.86856225420508       -2.30635735212827        1.09184497796226
