26
 energy: -42.399270982614 gnorm: 0.000403801425 xtb: 6.6.1 (8d0f1dd)
N           -4.86505209205198       -0.44272763471221       -0.31800254137561
C           -3.55793737710739       -0.20371556199556       -0.11237353169900
N           -2.75518558400245       -1.16013576616857        0.37193529915948
C           -1.50841411478264       -0.64991428590979        0.39552826429952
C           -1.56503245338412        0.81108510243526        0.02468669431271
N           -0.70386408876711        1.78883467000204        0.17782880058709
C            0.56488801352122        1.91558879112393        0.38004628012744
C            1.67047864259157        1.08776683492990        0.14324749753656
C            2.95734579853021        1.60832046988917        0.05386242747099
C            3.88031337811530        0.58003410484384       -0.16598348858173
C            3.20257002267390       -0.62649220281387       -0.17333396227526
N            3.78623334968039       -1.86409648472661       -0.29456508490050
H            3.21617396102145       -2.60943608651467       -0.66069272792612
H            4.73298536283804       -1.85967464481873       -0.63901341560893
C            1.79701874753215       -0.37708920201833        0.03727461693891
C            0.92780737830368       -1.40916989682738        0.29018447521160
C           -0.45287282036449       -1.52481873714941        0.50015659133866
H           -0.79473840358485       -2.54263542992696        0.65599755993666
H            1.41688046549102       -2.37938802834319        0.31716726130358
H            4.94142924022854        0.70244687014679       -0.28817433372030
H            3.20017099714865        2.65418811717228        0.11153581966343
H            0.83109168736282        2.92757856213667        0.69060199019195
C           -2.87251275589425        1.00366693535376       -0.38537068998327
H           -3.30457420803157        1.91294403853915       -0.75241778070986
H           -5.25517065087120       -1.28971798014521        0.05651905628242
H           -5.47769813479651        0.30575145249776       -0.58597784957968
