30
 energy: -56.468785723106 gnorm: 0.000829606551 xtb: 6.6.1 (8d0f1dd)
N            0.39616105945875        4.53710915989387       -0.07671493487545
C            0.40585335540684        3.39047872035402       -0.09313971458830
C            0.30994078818921        1.96828091400072       -0.08821494941488
C           -1.05735984733705        1.59360182582950       -0.07014068624449
C           -1.75685023775501        0.42646092387369       -0.00389481826219
C           -1.34896020819905       -0.99626176633301        0.20370870683641
C           -0.12911326859033       -1.63394429864346        0.32326301612506
C            1.22320454984054       -1.29538246922241        0.18468375775203
C            2.02017281742352       -2.44685033595878        0.45297451075527
N            2.54728605977133       -3.41832524664294        0.75740117614740
C            1.93145396150978       -0.12971779896499       -0.13566173179700
C            1.52643960826066        1.30844228627943       -0.17807311391694
C            2.71604522756687        2.05107735931023       -0.37733032189491
C            3.77615299549683        1.19347572008495       -0.52539776256493
C            3.31508851869979       -0.14148749114227       -0.37484921263574
C            4.18176551755274       -1.22759916652717       -0.54602600752988
N            4.97137008354493       -2.03467674217207       -0.75772521816681
H            4.79706958315553        1.46195983664083       -0.72644662564684
H            2.76139381422027        3.12146829152346       -0.44542127719713
H           -0.25495698438531       -2.69072251621278        0.54843110855530
C           -2.52622828824407       -1.73679025373974        0.30211030303887
C           -3.63898866178651       -0.89646260574190        0.13950753835564
C           -4.98559941728045       -1.27578257186046        0.16059893040374
N           -6.10143249821775       -1.54764341460829        0.17243606614291
C           -3.19124463867168        0.42619837468966       -0.04497550289793
N           -4.00869269518476        1.47806108873950       -0.24945438423620
H           -3.66249603087185        2.41772381369598       -0.31218951476072
H           -5.00292585078052        1.33817772367835       -0.19869676546541
H           -2.58149741869326       -2.79728312165146        0.46224709611161
H           -1.69171645770017        2.47530667452586       -0.13254290753280
