29
 energy: -55.971988763040 gnorm: 0.000833150259 xtb: 6.6.1 (8d0f1dd)
N            1.03725753126059        4.11032448929357        0.57199494734115
C            0.84001511044870        2.98316935482173        0.50067152081790
C            0.50861270514695        1.60267984199586        0.42685258602695
C            1.61651164493821        0.76546250895412        0.40938651888633
N            2.83816863218049        1.29491138306400        0.29215114569519
C            3.66134978879609        0.32439568990426       -0.12038488374191
N            4.94874953634567        0.55157078270107       -0.36307881677938
H            5.32122026571326        1.46972210535235       -0.18940841550984
H            5.53849024186560       -0.17898489341157       -0.72369142849780
C            2.98863459811139       -0.93477851771891       -0.26009652666863
C            3.59844404329039       -2.11537685416174       -0.67128115522091
N            4.15288065716949       -3.05668497868921       -1.03141514510905
C            1.68205846355175       -0.72463043282683        0.19823985018927
N            0.84410333571337       -1.66033759841019        0.51459651030153
C           -0.40391281972640       -1.84418331661914        0.76531954547588
C           -1.53657941522102       -1.12741241386719        0.35071498688455
C           -2.79440770369527       -1.70753190873682        0.29011727058935
C           -3.74627966367519       -0.74778408394111       -0.10904490382964
C           -5.11299981070486       -0.95344490735798       -0.31451125328773
N           -6.24020815353820       -1.08246155882463       -0.49824523974181
C           -3.09701345034121        0.48829601936568       -0.25035084584941
N           -3.70624497350614        1.63383221440399       -0.60450497734693
H           -3.19359498460634        2.48222839818829       -0.76227147224113
H           -4.69021066080796        1.62080425292630       -0.81036585272517
C           -1.69209514758543        0.30512210477357        0.04322880924246
C           -0.87117005674273        1.39001866136789        0.20099879944733
H           -1.38627007884638        2.34293577625915        0.09904896969453
H           -3.01387712784502       -2.74116901395125        0.48447725113570
H           -0.60343037199280       -2.77907169075354        1.28636914942253
