29
 energy: -50.368675562485 gnorm: 0.000585885851 xtb: 6.6.1 (8d0f1dd)
N           -1.50857740731085       -3.78826669354801       -0.60230485181010
C           -1.11019404881043       -2.72249432173420       -0.43638773866544
C           -0.57935103594591       -1.42624073590205       -0.23667334913401
C            0.80562243189695       -1.42354100749523       -0.17498099018688
C            1.79454625213656       -0.47185264875053        0.01549649227656
C            1.86715599308851        0.99402686291903        0.01260139896364
C            3.24249546731641        1.26062124006836        0.18912158311386
N            3.98278600850572        0.16855577583776        0.31833294428357
C            3.14829305537125       -0.87660337410457        0.19057645451404
N            3.65500356394211       -2.14058794398845        0.21168547381931
H            4.60969716064109       -2.19787170263263        0.52630821127172
H            3.05519411018300       -2.90066435888403        0.48468203800534
H            3.72711384401230        2.21550777393188        0.29611734953911
C            0.92099061295793        2.01121077623559       -0.15172733198494
N            1.39907575807646        3.25653747454534       -0.39264664504030
H            2.38401052651962        3.41940106157580       -0.48631958082960
H            0.77170525274102        4.03998597396136       -0.42816622523406
C           -0.49532349074313        1.98765258610288       -0.03903455592183
C           -1.48945045858456        1.05775048465065        0.04649494625746
N           -2.74630927349348        1.56537154553197        0.19929988050076
C           -3.58661386246479        0.54119639366400        0.18121192170904
C           -2.91232284522166       -0.70768378062198        0.00140482127463
C           -1.57061889295998       -0.42618598448988       -0.07059958112228
H           -3.38269958628439       -1.67024819420729       -0.04974008555290
N           -4.90950619089414        0.69848023510643        0.31697532118906
H           -5.28047329574352        1.62239663287547        0.44953900266961
H           -5.52456231480178       -0.09399502829573        0.29808253679623
H           -0.92378858342583        2.98614053125896       -0.00578604565105
H            1.21258298829538       -2.42717409770928       -0.27897764565275
