25
 energy: -43.476407157738 gnorm: 0.000965626936 xtb: 6.6.1 (8d0f1dd)
N            4.27032072111611        1.86110233734101       -0.65569634884104
C            3.59711786028271        0.96300710665826       -0.40307738592194
C            2.74110965163486       -0.09290499941018       -0.10316677159656
C            3.05700236252616       -1.32146434185918        0.47885005783940
N            2.00243430081298       -2.12411224680420        0.63619972045445
C            0.93835042510785       -1.48590155078084        0.13630714971125
N           -0.15893710572381       -2.11945597735045       -0.11883090854045
C           -1.38886018203038       -1.86603243785228       -0.40664688251300
C           -2.19592328280741       -0.77608136571272       -0.05223559247730
C           -3.56490405794669       -0.94517225076858        0.18115540421337
C           -4.11388937021290        0.27117253122882        0.57420208283931
C           -3.12542925413346        1.24065410424806        0.50806678939926
C           -1.90031832548360        0.65019590398669        0.12943624455432
C           -0.77485702038427        1.41590850418394       -0.23971271883709
N           -0.97821606111506        2.74610123905578       -0.39999055574364
H           -1.89572800018848        3.13779154822547       -0.29436163305608
H           -0.20680253097687        3.36432767473907       -0.58142883530755
C            0.58932592044167        1.05251410919467       -0.41912033124370
C            1.32121220578876       -0.08770646759768       -0.25646374404436
H            1.21957323337457        1.92186768153058       -0.60282146899882
H           -3.28600173527724        2.27275094843087        0.76464837439544
H           -5.13689035219296        0.43921361496154        0.85672011273241
H           -4.08345211240620       -1.88363931929657        0.12058908290587
H           -1.91073462725695       -2.71768944061045       -0.84116324914296
H            4.03359657045060       -1.65083853753787        0.78809703042410
