32
 energy: -58.347110146568 gnorm: 0.000524708566 xtb: 6.6.1 (8d0f1dd)
N           -4.35966858112536       -2.42105957542557       -1.30960187288798
C           -3.82211456327757       -1.49566802467208       -0.88323855458794
C           -3.23338364436659       -0.34284001217156       -0.38398015315046
C           -3.91251393329085        0.91774041883941       -0.20993446522774
N           -3.13220873463855        1.85324730320443        0.30970585909086
C           -1.89798162603617        1.30722159592438        0.46113002767915
C           -1.95198747683251       -0.15174741669366        0.13192827020984
N           -1.11707023046330       -1.10478186929002        0.43412066018562
C            0.13378268800839       -1.28491349736107        0.70368881874773
N            0.40112198109986       -2.45574908557740        1.35586291226785
H           -0.39368726800277       -2.94449724357876        1.73583300877487
H            1.28529683591328       -2.56069267073165        1.82325526636874
C            1.26573872051835       -0.52344484027269        0.26564725679187
C            2.50776008584456       -1.08076303898674       -0.01022875049424
C            3.45661071534145       -0.02353204143970       -0.22560380527686
C            4.79161581091054       -0.20558481922499       -0.57373226651766
N            5.89006694578919       -0.36403495340356       -0.88078193586245
C            2.81008691210735        1.18849129002779       -0.03047130720605
N            3.40883459730326        2.40360986549408       -0.10169673246397
H            4.33811773969424        2.43640491773209       -0.48740320667317
H            2.84716833458296        3.23004559582673       -0.20887027379772
C            1.41028350464348        0.93018660297634        0.26363347386389
C            0.56324820611296        1.97143202594928        0.55120017813898
C           -0.82798363000901        2.13429676124576        0.67934641226388
H           -1.13873920250698        3.16076467312584        0.83959927080602
H            1.07607719789181        2.92506249873476        0.63554279016069
N            2.85049528678023       -2.40207583664380       -0.06861967020115
H            3.71989567865159       -2.60738300203901       -0.53729334724022
H            2.10413878550826       -3.05926794227781       -0.23437690367156
N           -5.19246988120308        1.14008653020398       -0.52749075278618
H           -5.59588335574859        2.03887943478185       -0.33239777132864
H           -5.74537264099385        0.41140255311660       -0.94279735957737
