29
 energy: -50.365602955227 gnorm: 0.000615366019 xtb: 6.6.1 (8d0f1dd)
N           -4.82234672820967       -1.29004930987700       -0.37737081538545
C           -3.99721483403099       -0.49251539410657       -0.29155288937050
C           -2.99466444350236        0.46978604843695       -0.19118641353601
C           -3.12623628366808        1.84657643179022       -0.42125287043835
C           -1.91601658225310        2.49667007281212       -0.20841569897217
C           -0.95775320179532        1.56663748805547        0.19511273417113
N            0.28142222866891        1.85304287458981        0.44810988929865
C            1.44149747854559        1.25399307687765        0.49760988338646
N            2.42665555085241        1.99201773868389        1.07134728318066
H            2.17884489274334        2.84614567510391        1.53951283614344
H            3.33506586649930        1.58626548780663        1.20813982658505
C            1.83226265358029        0.04024517246501       -0.14291404856577
C            3.09646967272543       -0.18574316932118       -0.70957868482757
C            3.20780693794890       -1.54789323847596       -1.03440592281111
C            2.06519193070741       -2.19768836322232       -0.60563805370966
C            1.16865201456754       -1.25406889708062       -0.07449551415377
C           -0.05460682124890       -1.59664512873382        0.54992205370600
N           -1.20256244509681       -0.96462383626468        0.44500991712922
C           -1.65813689795950        0.21192833015877        0.20901027437779
N           -0.13508297898104       -2.79012238390411        1.19319363660549
H           -1.05083965633836       -3.14998935155572        1.40635553031730
H            0.63611582865989       -3.43045332486259        1.12825939433522
H            1.86304435835293       -3.24639524377083       -0.73098170403665
H            4.06451191685096       -2.00510876153817       -1.49506532247879
N            4.09898532051456        0.76002119759729       -0.90407776543918
H            3.75977296200444        1.69707070449150       -1.07272935181194
H            4.77748371017164        0.47456008466301       -1.59645211479745
H           -1.73786065354158        3.54905534433687       -0.31803887327227
H           -4.04313295066120        2.32261908074390       -0.72329613842909
