30
 energy: -54.910186689431 gnorm: 0.000397472581 xtb: 6.6.1 (8d0f1dd)
N           -2.98960528394836       -3.52584751091998       -0.15174496329220
C           -2.55818002367998       -2.46247513582927       -0.06632984708803
C           -2.08734412132296       -1.15502202351671        0.02986968153033
C           -2.89544738632556        0.00033324179729       -0.12969826370298
N           -4.20485017855097        0.00030812890711       -0.38931895261813
H           -4.69991070378358       -0.86997318274830       -0.48915389638058
H           -4.69983410419395        0.87057360114528       -0.48969228228599
C           -2.08726284482326        1.15573364334005        0.02904512739697
C           -2.55795659326946        2.46316283682492       -0.06834872412077
N           -2.98936367864358        3.52652924935842       -0.15406541136885
C           -0.76620992166921        0.75544483617460        0.30352090373967
N            0.20123282251316        1.59142331724502        0.50350096887251
C            1.50879648969639        1.60332767624379        0.43197653955883
N            2.09580782894502        2.66621044803254        1.02499356097895
H            1.51094625302871        3.39879532623414        1.39105553702659
H            3.07211593040505        2.84096562471612        0.86659701910203
C            2.34604142410089        0.72278208685768       -0.31604411619340
C            3.48761584846488        1.12817862490628       -1.01905227317939
C            4.14946241138503       -0.00047916656125       -1.49004531824323
C            3.48761100799794       -1.12875385231050       -1.01815443310734
C            2.34614676982340       -0.72273385529957       -0.31536975003830
C            1.50873878959725       -1.60261819023836        0.43327133737878
N            0.20115174088566       -1.59055000718269        0.50466419356664
C           -0.76624471424891       -0.75465346185205        0.30402632997633
N            2.09559070665177       -2.66512788397185        1.02709718313125
H            1.51061992065605       -3.39739044949985        1.39362210956770
H            3.07191086196628       -2.84018773523172        0.86873742727306
H            3.76730293430760       -2.14819510214540       -1.21707868798875
H            5.04416176313221       -0.00072834439949       -2.08515539468281
H            3.76739651380311        2.14744743732456       -1.21872880470934
