31
 energy: -53.803101715318 gnorm: 0.000520514805 xtb: 6.6.1 (8d0f1dd)
N            4.99140957789236        1.66632670967846       -0.10215731558548
C            4.24926974597799        0.78781353336353       -0.03836422440720
C            3.33152907240608       -0.25437168324849        0.02156661596164
C            3.59768257692202       -1.61302216034270        0.27738571671942
N            2.51655412180103       -2.36465804618552        0.24262380471094
C            1.45336041726090       -1.54496599925123       -0.00479933832722
C            0.25246074797235       -2.15147236222250       -0.21956110567266
C           -1.09380348555602       -1.72543976653843       -0.38061828011499
N           -1.93340538640558       -2.73739615327529       -0.72152964040123
H           -2.88225225811493       -2.52365054514586       -0.98320971384351
H           -1.54825248557307       -3.63191452827140       -0.96997968679001
C           -1.68525536262338       -0.49272488850075       -0.08740488642987
C           -3.06882577025539       -0.37679246549852        0.23187197828505
N           -3.44001217890138        0.88012915204112        0.45259549974977
C           -2.36415362355280        1.64898461374292        0.22734551865734
N           -2.49518448758892        3.02898552059409        0.35644216392128
H           -1.77649658033794        3.45852155240164        0.92615757335704
H           -3.41983222142875        3.24703148780057        0.70794818721658
C           -1.21282579079938        0.90064091877413       -0.09363526604835
C           -0.00842588412187        1.51318861003189       -0.50438039411273
N           -0.11348637938271        2.80256507028316       -0.91127582376616
H           -1.02372908817887        3.21061193706848       -1.04999515402829
H            0.70610564124177        3.30082525162802       -1.21092994181699
C            1.31985478777825        1.04421670909474       -0.46445404086027
C            1.92666590971158       -0.14359467804591       -0.13629802845639
H            2.04165898701805        1.82943629017368       -0.68121858287716
N           -4.00511575417341       -1.39301126869890        0.37516095826485
H           -3.68471710280085       -2.17530802453994        0.93254943889034
H           -4.86730410653614       -1.00713222054927        0.74141546621604
H            0.35682582958132       -3.23313466619308       -0.22295190220569
H            4.56281193245858       -2.04446656026366        0.48054310899106
