24
 energy: -38.962540678356 gnorm: 0.000388660778 xtb: 6.6.1 (8d0f1dd)
N            4.57750179242990        0.12557184107840       -0.47673432773691
C            3.27359397331386        0.00915395780346       -0.18992384211928
N            2.44411127158475        1.05005432311321       -0.34403027365143
C            1.22762260617028        0.63488968434395        0.03775704299954
N            0.30240700993511        1.50641351002724        0.25161921193012
C           -0.97329611434669        1.57870878370470        0.47000553362907
C           -2.01803005644223        0.73848441089612        0.09627591000610
C           -3.33627542906672        1.19658532940063       -0.05275699484618
C           -4.15968062972051        0.12268936392322       -0.36742241873969
C           -3.39350059675406       -1.03758544450485       -0.36309941931890
C           -2.05171053322469       -0.71955439421246       -0.09622303693550
C           -1.11804110137486       -1.73174863183570        0.13995936996871
C            0.23762084262860       -1.79053907296687        0.38585946509600
C            1.26622992417671       -0.84599229448192        0.33616223390118
C            2.60837468829803       -1.16337694859136        0.25251054157369
H            3.06789535382139       -2.11776217238900        0.42366242601199
H            0.61917697049082       -2.80082875554600        0.50763409999271
H           -1.57972346906990       -2.71502124846626        0.09498208049917
H           -3.76344284084487       -2.03345857512041       -0.52984254760043
H           -5.21806762112174        0.17485210299528       -0.55012985076315
H           -3.63831777985788        2.22480436373626        0.02916200701345
H           -1.26859244189590        2.53410168852271        0.90471355107650
H            4.92240618022077        1.02853925986707       -0.75150291151432
H            5.22332960184866       -0.60566005709715       -0.24080228647288
