31
 energy: -59.422629834624 gnorm: 0.000430793445 xtb: 6.6.1 (8d0f1dd)
N           -6.19073750395403       -0.87631906206638        1.03896869883523
C           -5.10202198550770       -0.81463315757970        0.67406088948326
C           -3.77565812006697       -0.68103669884873        0.26049380101677
C           -2.91331776214346       -1.67704826781259       -0.17207154350712
C           -1.65252733392544       -1.10828830830236       -0.44649167215099
C           -0.59310987432258       -1.87314619572882       -0.94147897697880
N            0.69152144716410       -1.74071980173499       -0.79129116949488
C            1.54718783856374       -0.84693603733073       -0.42286742859957
C            1.41310553109560        0.65911967833871       -0.31985824757457
N            0.40114530276261        1.41575119540930       -0.58469316375486
C           -0.89356972192192        1.34379304324482       -0.72637188462445
N           -1.45514623133804        2.44887945192715       -1.27280127409387
H           -2.42524417738420        2.44333454452556       -1.53493547131702
H           -0.84378598288662        3.15413489038927       -1.64913226352290
C           -1.77676452251272        0.33082748743067       -0.23556040240106
C           -3.09091667290466        0.57269717586776        0.17715021062924
N           -3.68736228291278        1.78108455367146        0.42661909082895
H           -3.08095488199827        2.54371835162843        0.68678515892194
H           -4.55087345970012        1.73335048732125        0.94742726911426
C            2.62023413549570        1.13496968300960        0.21737921254049
C            2.93527952240735        2.46418631306329        0.49414506819013
N            3.23068745369683        3.54957009498381        0.73426468116647
C            3.49356344239850        0.03616697154430        0.43897550374837
N            4.73181899130190        0.11673903536633        0.92605692852709
H            5.12505283389561        1.01159323810389        1.16607303705076
H            5.27668690124240       -0.71909993260787        1.05970035290860
C            2.82864447376084       -1.16161912811853        0.07093585055431
C            3.39284683907626       -2.43095706861732        0.19290178567350
N            3.91145206593612       -3.44995678496196        0.31594525154296
H           -0.86472141240107       -2.82415526248349       -1.39506622600255
H           -3.14560392821915       -2.72335239513330       -0.23632840020805
