31
 energy: -54.617365679337 gnorm: 0.000847849800 xtb: 6.6.1 (8d0f1dd)
N           -4.14443498314929       -2.53614426514680       -0.38454876756950
C           -3.42838801838960       -1.64700245459358       -0.23081847219360
C           -2.58321583657178       -0.56057089574349       -0.05292218750947
C           -2.97977172233899        0.74306992723055        0.34565111973600
N           -1.93413272494004        1.58204017824123        0.39533301704188
C           -0.83176179919836        0.88502047562506        0.09436248540654
C           -1.17776071238084       -0.52857140384867       -0.18993174513034
C           -0.46211645005153       -1.60863874755246       -0.66363541323014
C            0.88932574740610       -1.96874023022852       -0.63374281442964
N            1.17686552010405       -3.14651747205980       -1.24347606026402
H            2.10827000622510       -3.51825133614786       -1.19521567524074
H            0.43609795546279       -3.74240089705900       -1.57083927926039
C            1.96654837247378       -1.35484389636562        0.05549528584414
C            2.31777233041089        0.03774263922560        0.27794911878212
C            3.57970791984080        0.03346101829632        0.90177452945370
C            3.97977422978481       -1.27563309876412        1.12147306020940
C            3.03183543717679       -2.11916071160567        0.55916095376112
H            3.06990333230609       -3.19333353846370        0.60195519767852
H            4.86957175728170       -1.58402627160988        1.63881162882062
H            4.10461602841035        0.90112307990034        1.26076286879545
C            1.71725710923361        1.26045894618768       -0.10751103683731
N            2.57511895861502        2.26565823990606       -0.39231185802140
H            3.56398710121726        2.09933616609534       -0.33488487049292
H            2.24005237400078        3.21159757215345       -0.48182941224829
C            0.34426126519166        1.61461177224123       -0.08823845274549
C            0.08683166232967        3.00745263878499       -0.16084477051532
N           -0.06567703252111        4.14242981322608       -0.25518934385184
H           -1.10468027468242       -2.39717718867234       -1.05007030551519
N           -4.21646488434020        1.14955231194384        0.64532184278644
H           -4.99478230269575        0.51847735744265        0.57469963415884
H           -4.35889658811160        2.11096760026061        0.89979315528055
