29
 energy: -50.357337714102 gnorm: 0.000785004639 xtb: 6.6.1 (8d0f1dd)
N           -3.14944279666100       -2.98258068630676       -0.55065976061430
C           -2.43072416366086       -2.10498228770935       -0.37000604622954
C           -1.50877369963945       -1.04660263044847       -0.17080352642034
C           -2.10187057926506        0.19388749726253        0.02327565952656
C           -1.45823246028108        1.52349747089232        0.36186967349416
N           -0.28109078393824        1.93826348608270        0.05914489451873
C            0.87933131360973        1.54554741058373       -0.38485549194828
N            1.52845400631732        2.47619546850546       -1.14461624796586
H            2.30483306743851        2.17933805448159       -1.71053459824030
H            0.97630169513389        3.25524543656397       -1.46566560275121
C            1.59231298332080        0.38698495858332        0.00261519302091
C            2.98285552245670        0.29973040115746        0.10947205884378
C            3.34899635911940       -1.04268979858113        0.37197263980538
C            2.21544795170746       -1.81938367547922        0.37963337598219
N            2.18262787702259       -3.17776969186698        0.53606534449528
H            1.33021695403642       -3.59551450882511        0.87096416894926
H            3.02560253584233       -3.59928876003168        0.89009679830413
C            1.05735219664877       -0.97134067231309        0.15437315912135
C           -0.17814366527070       -1.52453531569595       -0.04062542631597
H           -0.16267354510960       -2.61202097906632       -0.06169233515564
H            4.35636536368257       -1.38844995953969        0.51523191395977
N            3.88460143569618        1.32774885173260       -0.01234844892952
H            4.79166661285867        1.14749831778236        0.39030035960018
H            3.52574248822808        2.25204738934646        0.17407293864700
N           -2.36976928692295        2.34486043039148        0.89266929358071
C           -3.54554566160859        1.70566782699551        0.80489115993429
C           -3.46057980196666        0.42802178245097        0.26464137219948
H           -4.26680576748742       -0.26492126664457        0.12402679329016
H           -4.43917384181060        2.20027383089769        1.14582932129960
