30
 energy: -50.875137997359 gnorm: 0.000649338464 xtb: 6.6.1 (8d0f1dd)
N            3.97107466088945        1.45461377330325        1.31868199101537
C            3.36108495380476        0.59051988235403        0.86750939907170
C            2.63189098131126       -0.50571355283007        0.40013330137489
C            3.13689949197813       -1.86011483682440        0.40911949637698
C            2.17759209241181       -2.67551096261682       -0.08224424415006
C            0.98088996654359       -1.90757709235971       -0.33769920232144
C           -0.16185723322126       -2.53140945186674       -0.74656309472767
C           -1.52558606946777       -2.17019279233001       -0.70658226148351
C           -2.19182948214637       -1.07018130240386       -0.24467659814751
C           -3.58976556868392       -1.20914865931204        0.11658345459774
C           -4.00494397998117       -0.07459331226454        0.71935114531360
C           -2.93125258967153        0.88632816723779        0.67164703699693
N           -3.07187899324375        2.16328199908561        1.14757768631138
H           -2.22393534355894        2.67117245710852        1.34822687535702
H           -3.81889881178806        2.30402579648704        1.80894439930805
C           -1.82154420288093        0.30239093111058        0.07558123476934
C           -0.69043286754664        1.06882301722743       -0.37997378157921
N           -0.99297651636286        2.36020663308094       -0.70979205467718
H           -0.26772826936572        2.93363488877662       -1.11101144526778
H           -1.94718945053418        2.59267616733678       -0.92355490087771
C            0.64686869603377        0.70027652623837       -0.42534222425876
C            1.53077325198558        1.69322348523932       -0.90321717616808
N            2.19712953921100        2.50086210393630       -1.38012347966582
C            1.32287637479323       -0.50776374700498       -0.05028731664842
H           -4.96588333688266        0.11956018679270        1.15979173100104
H           -4.14672971287543       -2.11910195012896       -0.00425800318233
H           -2.18393953725875       -2.99890638479746       -0.94930407904223
H           -0.01024678175275       -3.57118165823167       -1.02152839475288
H            2.23273960745686       -3.74247909182327       -0.19311834562661
H            4.11847441340347       -2.13085987812101        0.75264856198326
