27
 energy: -47.714698247465 gnorm: 0.000852608838 xtb: 6.6.1 (8d0f1dd)
N           -4.74085192127969       -2.18823951550662        0.00492270306447
C           -3.97952910154617       -1.32682925508005        0.00493801185542
C           -3.04143958872301       -0.29522313021981        0.00419860073385
C           -3.29109322240585        1.07166791220377        0.00117936174683
N           -2.16363498822907        1.79357207554908       -0.00033197536162
C           -1.12833613523263        0.95149905900255        0.00301897652790
C           -1.61651410838292       -0.45215987887358        0.00620139975236
C           -1.03462044646168       -1.69217881039529        0.00759849386800
C            0.28931188983549       -2.16447684854663        0.01173626688910
C            1.53691294940608       -1.60002642596869        0.01193161639861
C            2.67749187122120       -2.43928437494455        0.02088838617421
C            3.82433532058819       -1.68320842140505        0.01997827903609
C            3.47677232122549       -0.31510911435803        0.00815166879785
N            4.39130941241378        0.68580937760732        0.04929178549406
H            4.11848280879911        1.63345907826273       -0.14432546056454
H            5.35474523137373        0.44995077969817       -0.11108058772065
C            2.06306509125123       -0.19702239364177        0.00713524779765
C            1.45801687505405        1.03895458416660        0.00461085146205
C            0.14715314477095        1.52930795376884       -0.00113991527342
C            0.10843471032782        2.95121653602350       -0.01479258231688
N            0.18260727992763        4.09565731894563       -0.03066233954817
H            2.17207928600063        1.85983942341850        0.00985253929539
H            4.83243809288631       -2.05648721534005        0.02629158993666
H            2.63462426947417       -3.51248036109361        0.02631199419356
H            0.33193156617871       -3.24979898967491        0.01718368127188
H           -1.76660239919493       -2.49599921360512        0.00707136730440
H           -4.24870007317783        1.56040254410720       -0.00029397151470
