28
 energy: -49.860622019348 gnorm: 0.000779597174 xtb: 6.6.1 (8d0f1dd)
N           -4.79897411866306       -0.62376121901410        0.80798664691666
C           -3.55724679579462       -0.31883718480451        0.41501050168402
N           -2.72075385029094       -1.29070049908131        0.00671215115497
C           -1.57247664533306       -0.69741905838322       -0.32122484212253
N           -0.55667594722625       -1.39470274140609       -0.69442539482271
C            0.75177084700678       -1.29142982298648       -0.71982270700975
N            1.38156594115248       -2.24347039257978       -1.44594066535006
H            0.83483317408451       -2.93747104700419       -1.92424342759518
H            2.38578789094004       -2.27382994787530       -1.45982308258752
C            1.55725319592017       -0.41394249524268        0.04599498215874
C            2.83055637873457       -0.71239133203497        0.58776215498351
N            3.42483022184792        0.36487658026882        1.10095763520654
C            2.60853275707184        1.40255912548307        0.85157227593855
C            1.42293839754932        1.01457746567755        0.23705462989966
C            0.44919636273586        1.89888800592707       -0.33461298923315
N           -0.84374820300313        1.77678469429887       -0.32995440759022
C           -1.70574947219513        0.81702817001769       -0.11690482525848
C           -2.97860573700147        0.97175430179202        0.38788817504641
H           -3.45661399435536        1.88609006456733        0.67665116741366
N            0.92906472902903        3.05311739337080       -0.86508596732351
H            0.27535264088298        3.77818097376880       -1.10630109984079
H            1.89206304329547        3.29158233497192       -0.70856091188012
H            2.88534130946175        2.38856581113161        1.18260871095985
N            3.45158414489391       -1.95575306603552        0.61573331663772
H            2.82369450511614       -2.72350946674839        0.81532288162983
H            4.24260679522669       -1.94228545843238        1.24622784053307
H           -5.09260775801090       -1.58371024315183        0.77112731182838
H           -5.42890711047560        0.08726652420511        1.13116209122184
