25
 energy: -47.492030351804 gnorm: 0.000516037644 xtb: 6.6.1 (8d0f1dd)
N           -1.22328188892347       -3.63739974780893       -0.76013584904508
C           -0.91159276465365       -2.54340078300531       -0.61141218195891
C           -0.44910004677162       -1.21197480300117       -0.44764872012727
C           -1.46898654362302       -0.27050678060101       -0.36578774351665
N           -2.74187199289258       -0.63560103945681       -0.22596754198766
C           -3.36599071544078        0.45506020545058        0.25556374685482
N           -2.59921790415503        1.55499930735095        0.43115240882391
C           -1.40600575950694        1.21480969116453       -0.04052052316092
N           -0.48217097469463        2.07507446726649       -0.29920357581286
C            0.77996548631832        2.17015252900533       -0.52107821912046
C            1.81865094758035        1.32673400729933       -0.11066430481277
C            3.14864233748375        1.71616504271544        0.02543945464662
N            3.97642927595230        0.70028771933720        0.31273231890702
C            3.23501775695784       -0.40464958992098        0.32038305027930
N            3.79600154179964       -1.60407084731565        0.54147403798120
H            4.77213103183401       -1.61938218240404        0.77956071502667
H            3.24043714986008       -2.42522720212053        0.69855937410901
C            1.83129688533945       -0.13040062842928        0.05819083668852
C            0.94209873516600       -1.13616153211086       -0.20864892116085
H            1.38569497651328       -2.12974302316903       -0.19200130616059
H            3.53259972201295        2.71809258919279       -0.03651219735824
H            1.07106559911703        3.08904229207264       -1.02644450096829
N           -4.65747118823832        0.44667817048603        0.56464659913757
H           -5.07328187899587        1.27243684930229        0.95701646405458
H           -5.19889737183976       -0.37928221599998        0.38055587988094
