26
 energy: -47.194916651250 gnorm: 0.000823155111 xtb: 6.6.1 (8d0f1dd)
N            4.61974835373655        2.00835837214620       -0.33685426265674
C            3.94278436727921        1.08312342604108       -0.24359898852688
C            3.12241309785418       -0.03914103816599       -0.15418218369017
C            3.48178570356131       -1.37950110569091       -0.34097663377649
N            2.46093964981880       -2.21453540143155       -0.21752459639019
C            1.37762590020898       -1.52945980113572        0.16191346627259
N            0.20409927434744       -2.02672761392430        0.12760125420685
C           -1.06273226245844       -1.71569891227045        0.21374167588852
C           -1.75783870526049       -0.55682324171156       -0.08282454063710
C           -3.17958899903171       -0.56037745354302       -0.30099987927347
C           -3.64666137548504        0.74947733720132       -0.33519590638797
C           -2.57329732562636        1.61047976205085       -0.09423167022827
N           -2.66283145696255        2.95564171343239       -0.00350520197155
H           -1.82771719303714        3.51344580640112       -0.00850085650985
H           -3.52278318496207        3.40210428005031       -0.26867898188477
C           -1.37311031098890        0.84578200359349        0.04780818082072
C           -0.19456441812539        1.39602695433223        0.53060777191307
N            1.03150228727135        0.98071920538689        0.41526153442084
C            1.76989527061354       -0.04756159888126        0.28849639690611
H           -0.25399649118956        2.39331979319869        0.96194899567975
H           -4.66845338204215        1.04842658318646       -0.47607403826216
N           -3.94553131557330       -1.66464761635677       -0.44774518502897
H           -3.50972817197690       -2.55599376988315       -0.60304369214907
H           -4.89726096867218       -1.55390563049289       -0.75012803861667
H           -1.66846823421725       -2.59250462083080        0.44051924397348
H            4.46597788861747       -1.75194707520184       -0.56485338339232
