33
 energy: -58.842905656899 gnorm: 0.000632563087 xtb: 6.6.1 (8d0f1dd)
N           -4.45126814785143       -3.36983880884772       -0.01541390063950
C           -4.02930064919716       -2.31248221002597       -0.18206340236344
C           -3.49820336841228       -1.03510362894555       -0.35614633328788
C           -4.05753630685141        0.01628737742661       -1.02546435107358
C           -3.15842640030093        1.12099629110150       -0.95762034087095
C           -2.00949708348281        0.75658712196871       -0.30137500457144
C           -2.16087956628035       -0.63589862884337        0.10110863352780
C           -1.37842247708522       -1.54048945922758        0.75296431717617
C            0.01058428856795       -1.63034324087748        0.99300872551297
C            1.07001922946390       -0.85866678228743        0.60039972258805
C            1.20783817487148        0.49287162413211        0.13015956708629
C            0.33025505260395        1.63600612485163        0.31713787471818
N            1.01421810014639        2.78927058073625        0.64320093967812
H            1.88084209430252        2.68602629418990        1.14491326102546
H            0.45271526516786        3.58724112962536        0.90207464199447
C           -1.02383723807374        1.73281871483851        0.10876163479415
C           -1.59159043385028        3.00921763697994        0.30694093573403
N           -2.03076785643653        4.05683214538334        0.49218253120790
C            2.51749796417616        0.65368245027363       -0.31836743914155
C            3.25043415088828       -0.57980578044224       -0.12082125697206
C            4.57669624409244       -0.78291585070906       -0.49185683071207
N            5.67208148164152       -0.93825643422725       -0.80909757144371
C            2.40962153471473       -1.47974027227076        0.49533598189772
N            2.73323805367639       -2.73073415259018        0.86268682083354
H            2.05771609538914       -3.35427857967854        1.26540165640171
H            3.64146875071200       -3.09042648883868        0.62520226451481
N            3.09610900611474        1.74691301492048       -0.85925080962168
H            2.51686749151617        2.52753330792700       -1.12044682001531
H            3.99492055777260        1.64503659206287       -1.29992000138343
H            0.28115984084955       -2.58463636296157        1.43213599823613
H           -1.90641587208423       -2.45114624180338        1.02405326586171
H           -3.36564007653545        2.09562047031102       -1.36094063861098
H           -5.01368422712684        0.02379983555108       -1.51603428198016
