25
 energy: -38.673321565821 gnorm: 0.000580684887 xtb: 6.6.1 (8d0f1dd)
N           -1.34279258252146       -2.70491843371572        0.15777272122834
C           -0.76157406102679       -1.47389786508254        0.05726342209297
C            0.64362258689396       -1.54479818967965       -0.00840873935174
C            1.70648366654206       -0.67434624781271       -0.06185849587166
C            1.87296426240803        0.79725628386550        0.10346777465313
N            3.17364800291399        1.10849124086191        0.06710815157249
C            3.85455411328504       -0.03233149997775       -0.12861248069038
C            3.03291856444906       -1.13830604470678       -0.19894449343567
H            3.33458248948031       -2.15877010467343       -0.33916839278562
H            4.92784261106077       -0.00716607844519       -0.20677344326666
C            0.97879886032877        1.83425567488114        0.30781286310324
C           -0.40051317273402        1.93423693376733        0.30461616511769
C           -1.47135404213522        1.07609397529191        0.09555098477554
C           -2.76101405814249        1.64254775487876       -0.00429606935150
C           -3.68715610899155        0.65148921218872       -0.24753719390782
C           -3.02525543470358       -0.57792685185824       -0.25740344662997
C           -1.65436818304224       -0.38519041076561       -0.05064994025081
H           -3.52399679593365       -1.50940079303623       -0.45729195712523
H           -4.74216859034463        0.78945801906419       -0.40232068917909
H           -2.96585854530350        2.69485018171328        0.06681793247061
H           -0.74038442003244        2.95632323599202        0.44952923935692
H            1.50312546990790        2.77229834940656        0.45549200753219
H            0.98399074173041       -2.57943154852266       -0.04062801234695
H           -2.32337541680280       -2.78784557026326        0.34654405815288
H           -0.76872806638681       -3.52060181047211        0.27454455513747
