26
 energy: -47.995007522922 gnorm: 0.000612167332 xtb: 6.6.1 (8d0f1dd)
N           -2.47633119031759       -3.47934334999347        0.03076839484206
C           -2.06329587028558       -2.40975304392318        0.02144833672834
C           -1.45107624359806       -1.12670555759311        0.01144240682418
C           -0.05323031334546       -1.19583011135141        0.01142746545499
C            0.99256885413677       -0.30066743129172        0.00319639994325
C            1.07808153520735        1.19525972891814        0.00650361186995
C            2.44745981526659        1.51323328229769        0.00727326983912
C            3.20728308645459        0.34904320710565        0.00117250886348
C            4.60389849111468        0.25456487225989       -0.00552894598958
N            5.74673528504893        0.14177568426943       -0.01442387877333
C            2.33315295517210       -0.77135107133061       -0.00202035237071
N            2.77441931984999       -2.04546955155892        0.00848998949634
H            3.76282280662554       -2.21969599551157       -0.04222120225162
H            2.14743976722944       -2.82637657676725       -0.05869655896919
H            2.84941327506702        2.50925705542660        0.00999501433967
C            0.15953954108370        2.22222517412220        0.00943165239081
C           -1.23299735562991        2.32526283441522        0.00312772378269
C           -2.26216654408634        1.41455255813226       -0.00508673583314
N           -3.53220503291902        1.88484489718687       -0.01657776911465
C           -4.30373220234689        0.81477175916003       -0.02012542930802
N           -3.67450849174090       -0.36962124627756       -0.00983615266880
C           -2.37414384940014       -0.07687705948047       -0.00097165113490
H           -5.37642059033864        0.87905549745392       -0.03115110726611
H           -1.60781726979089        3.34301030631879        0.00270153292693
H            0.64353134471009        3.19477059113376        0.01520953677488
H            0.27667380213192       -2.23257379662115        0.01992294330400
