27
 energy: -46.918233335010 gnorm: 0.000622707390 xtb: 6.6.1 (8d0f1dd)
N            4.66399967268185        1.69446668631780        0.12542319568014
C            3.94035796581011        0.80199499010581        0.05631040707282
C            3.03572070367257       -0.25144151073233       -0.03510907366368
C            3.33053463381934       -1.62448314638634       -0.08600186239548
N            2.24959871039488       -2.37527302123142       -0.19298562063142
C            1.17092642266028       -1.55186885999884       -0.19831263634439
C           -0.05990097769136       -2.14975510102060       -0.28043018004743
C           -1.37867037833679       -1.68178782317612       -0.21012897872163
C           -1.97498964227342       -0.45727148789735       -0.08797699488067
C           -1.55562306223290        0.96007399024270       -0.10793853290397
C           -2.75053618502131        1.66501553245925        0.01148130364549
N           -3.83930762484176        0.88207752514707        0.12320475298121
C           -3.41714434804297       -0.36873469161577        0.05620661926394
N           -4.30277312914736       -1.39615121274285        0.08505024903837
H           -5.24210459800579       -1.13349846439217        0.33516153453230
H           -3.99791046133228       -2.30708604508013        0.38195333122020
H           -2.90679841896297        2.72754543887359        0.06902541211003
C           -0.30048688815362        1.60009618487862       -0.23493378003646
N           -0.33454809226274        2.94277638426242       -0.40638056271431
H            0.52125888357294        3.46743534859331       -0.45785074072191
H           -1.20422316251208        3.43429427880918       -0.49243204425819
C            1.01484070879365        1.09525456969324       -0.16384735624905
C            1.62215963028521       -0.13732687238417       -0.10821506623235
H            1.75138103067420        1.89759295654660       -0.16514990462624
H           -2.09345877734467       -2.49892150898043       -0.24250090677444
H            0.02979132214261       -3.22676391093994       -0.36882509374078
H            4.30951898795760       -2.06970858065251       -0.04791730110195
