32
 energy: -58.339540100956 gnorm: 0.000969513467 xtb: 6.6.1 (8d0f1dd)
N           -5.63483086295666       -0.73249974727986        1.31439917816275
C           -4.56017610801131       -0.64463454849175        0.91214822034933
C           -3.26273633206453       -0.49012530612905        0.42673841548863
C           -2.25372267476472       -1.44518146956898        0.40029617855964
C           -1.06856264971031       -0.85581518643130       -0.09105303372298
C           -1.40277719448868        0.51601086566700       -0.42806125134575
C           -0.59701077331212        1.46995469000314       -1.14084940060421
N            0.59892352724408        1.86420424768378       -0.84325240891039
C            1.59357460814597        1.40973559241184       -0.11863565846183
C            2.58817095334639        2.18550690561289        0.44126136084442
C            3.61383982383232        1.29370187485640        0.82919012185129
N            3.31446194974794        0.00637221526791        0.56331984900779
C            2.07975084784961       -0.00770127179407        0.05503408527692
C            1.46621158148104       -1.23124161396772       -0.18733172314311
C            2.38928032705091       -2.30552074443499       -0.12070266307653
N            3.10302531348614       -3.20619626769472       -0.11120558735652
C            0.09713204768081       -1.62413637713551       -0.30131583788205
N           -0.10288469700578       -2.94618278560871       -0.51737854006187
H            0.66954103033912       -3.59077490705936       -0.46714580666915
H           -1.03999139836670       -3.30856576896100       -0.51046611966721
N            4.78362107667132        1.60506374985507        1.39391316949562
H            5.42807548441405        0.86143697819538        1.59752204062884
H            5.00114796994886        2.55003760007242        1.65218679020060
H            2.61050974889784        3.25306212775199        0.51766492498413
N           -1.21307762540020        2.16320809068175       -2.12899190879611
H           -0.67628348578398        2.82494982184299       -2.66258119236016
H           -2.12281754889220        1.88148410067268       -2.44679451762210
C           -2.74956964314652        0.71271897397023       -0.13933349692012
N           -3.50860907460379        1.84587187113229       -0.37196734477283
H           -4.36025737177936        1.88315370106211        0.17042891986486
H           -2.99595681710587        2.71571700668158       -0.36592802904619
H           -2.35412281734150       -2.43508159006526        0.80802370930241
