29
 energy: -45.552447814536 gnorm: 0.000693208299 xtb: 6.6.1 (8d0f1dd)
N           -5.15699740088338       -0.29217501178460       -0.15978033269810
C           -3.80526279283719       -0.22742921315276       -0.09192845542792
C           -2.94971615366879       -1.30399500578387        0.21364686744195
C           -1.63225587763494       -0.86415818842478        0.22380662308292
C           -0.59101698040199       -1.75032759398849        0.46974768249154
C            0.79037570887489       -1.67315317379073        0.43271659569003
C            1.72124271799899       -0.68350518446225        0.17761459023154
C            1.70233000303880        0.77834007510104        0.01357961077818
C            3.05130763079059        1.11736426846094       -0.13562866752371
N            3.87474451564655        0.06007434681629       -0.11210035710124
C            3.11082728391470       -1.00975121338458        0.09039936298078
N            3.68749923019989       -2.25216746061536        0.22806115032359
H            3.16157706847267       -3.03449652802373       -0.12918958344943
H            4.65708492899770       -2.25297031740259       -0.05123030446189
H            3.48711903050643        2.08368026460348       -0.32073457589736
C            0.66904810422334        1.73631273234186        0.01671489795464
N            1.07910372455176        3.03896658591061        0.03921162378111
H            2.03418596963376        3.25891050658162        0.24859943575702
H            0.39721218243510        3.77291857127365        0.10593302226434
C           -0.72710838870655        1.60597607127234       -0.09207890855624
C           -1.67535995376728        0.60357427433536       -0.06582231928365
C           -3.02575299461541        0.92103132382425       -0.25291235546445
H           -3.40587759178553        1.90060989296492       -0.47931046000026
H           -1.20017766175982        2.57810931154929       -0.22656354508643
H            1.26113723958372       -2.63199709597000        0.63259612626792
H           -0.95808704065970       -2.74807028365080        0.69481885602287
H           -3.27019203606058       -2.31408226374538        0.39284061521892
H           -5.59801465978628       -1.19472834587041       -0.19117008327258
H           -5.66167988480094        0.48394221161442       -0.55082147886371
