29
 energy: -55.173220056842 gnorm: 0.000701630898 xtb: 6.6.1 (8d0f1dd)
N           -4.02403647837871       -2.90648806354930       -0.55293178427069
C           -3.46764054437355       -1.91591335413117       -0.38024709342776
C           -2.78132766215370       -0.71769162185091       -0.16864770181288
C           -3.31061822681258        0.57625702959417       -0.28129137452971
C           -2.32941461591559        1.52795899625201       -0.00180864943203
C           -2.48300967790113        2.91608385168701       -0.00968999713640
N           -2.59399546559143        4.05997328266021       -0.02064754689815
C           -1.12404838343994        0.85810837365486        0.34569779138991
N           -0.01193035688838        1.45847681602619        0.55220806410141
C            1.28474977909255        1.23636307689708        0.58092710271941
N            2.00557233341969        2.22399389369134        1.15750116423133
H            3.00023927139895        2.12329467189266        1.26067103769446
H            1.52013837368525        2.98281488679228        1.60448709792227
C            1.97534764845217        0.20328411441759       -0.09259301613967
C            3.28478418062996        0.30206128994000       -0.62572422852617
N            3.76477011516052       -0.88929815296398       -0.99540832756481
C            2.83727889779597       -1.79857514589789       -0.67895643051288
C            1.68538952577036       -1.22396355956358       -0.14232453997534
C            0.61621068007390       -1.94208823325581        0.46569893711363
N           -0.65443318368436       -1.63939937019275        0.40167348262514
C           -1.43333399592322       -0.62919614708800        0.24874828399369
N            0.90365734731205       -3.12089569977591        1.05697258562052
H            0.14595709199735       -3.72400101719502        1.33216811499709
H            1.83263067287248       -3.49618266591914        0.98261392862916
H            3.00864684181212       -2.83589289646217       -0.90356009988089
N            4.04572153886292        1.44118981619538       -0.76109885984913
H            3.53409348900086        2.28326428158633       -0.98362790792359
H            4.84713133298323        1.28918658777879       -1.35757546456989
H           -4.32845006846462        0.80060633158241       -0.54847232468800
