31
 energy: -53.821165042315 gnorm: 0.000468516850 xtb: 6.6.1 (8d0f1dd)
N            4.62950990392216        1.82107483691704        0.50156395557296
C            3.80531388967766        1.02831633311955        0.35206848721489
C            2.83184642820086        0.05897240180707        0.17289302676171
C            3.05259614304886       -1.25622474349608       -0.31164901204348
N            1.92202483900871       -1.98131865861936       -0.38757404113215
C            0.93052079336796       -1.19798915836266        0.04123277717132
N           -0.21479295605255       -1.70884798007981        0.36079575019620
C           -1.43911022886109       -1.30906216419800        0.55382747852653
N           -2.20217642942680       -2.14902463338009        1.28997676290158
H           -3.15879398931461       -1.91648554814235        1.48761248251773
H           -1.77182101765759       -2.95319080383440        1.71260600057014
C           -2.09932284752310       -0.21401475776906       -0.07652499608471
C           -3.40129441030015       -0.28406953450602       -0.58272305850160
C           -3.78096627557400        0.99747110981877       -1.02298614560861
C           -2.76665799245022        1.87781810295433       -0.72460021757617
C           -1.67427026086363        1.17566425424295       -0.15546709610819
C           -0.54078050638810        1.83130793252486        0.36155278958105
N           -0.69626983986680        3.15639891627182        0.64922587514798
H            0.11406677642750        3.73801665950623        0.77426374256126
H           -1.56806079194817        3.60558815082787        0.43551776412744
C            0.78234206007334        1.37229401568902        0.55887605358678
C            1.42971602846705        0.18710135122464        0.32262532391667
H            1.46968803165359        2.17894778773769        0.80823386295094
H           -2.78234310112720        2.92265182804749       -0.98035304141562
H           -4.71600719672269        1.23791263449801       -1.49573796325288
N           -4.20957920900782       -1.41608813719212       -0.64917799282615
H           -4.94346123989098       -1.33183451457379       -1.33923902869579
H           -3.69903481764867       -2.28296569666064       -0.74962852261730
N            4.23177522228781       -1.77243077574274       -0.67677874925339
H            4.26320426235288       -2.71927414416343       -1.00948059564043
H            5.07692310663609       -1.24236298936685       -0.56047887004838
