25
 energy: -47.480579207428 gnorm: 0.000896827208 xtb: 6.6.1 (8d0f1dd)
N           -4.01416758496742       -2.45345621437458        0.27943958561340
C           -3.50609146794663       -1.42402838954924        0.22373319655937
C           -2.87281145826691       -0.18263569991843        0.16625409406385
C           -3.42436826649257        1.08136904187726        0.41235437036119
N           -2.54943939725899        2.07027014887880        0.27896539448131
C           -1.39569734004486        1.56849728404824       -0.16630189026590
N           -0.32783586995326        2.26624108440190       -0.25776577245979
C            0.96199053942526        2.18509732282176       -0.34573685982449
C            1.81447055994220        1.15214106159103        0.04319447762769
C            3.17486121534011        1.34885362495609        0.38412623333209
N            3.80967395259551        0.21906885176084        0.62682467059924
C            2.92338512537393       -0.78288082924103        0.40555664221162
N            3.33119174861804       -2.08113891333364        0.51611084968359
H            4.21432487226826       -2.18239216357991        0.99383948121560
H            2.62895506867967       -2.76191951490223        0.76212582476219
C            1.65274292815050       -0.29497246150130        0.04533876059129
C            0.62229145367260       -1.06950350861711       -0.55543076159043
N           -0.65944317475327       -0.85076800233601       -0.46849814004892
C           -1.55088912224778        0.04826877887453       -0.29290927754930
N            0.96399964247454       -2.24851385214072       -1.13722733314140
H            0.24312025259676       -2.76108514841674       -1.61752394704872
H            1.92465242036766       -2.41006227912609       -1.38697844686794
H            3.67453351493211        2.29407851937208        0.48873594540127
H            1.43433382099077        3.12017042759984       -0.63684390372393
H           -4.44318786849761        1.29274455205289        0.68492833871737
