28
 energy: -46.635681263817 gnorm: 0.000489082328 xtb: 6.6.1 (8d0f1dd)
N            4.16406234376567        2.18161311686158       -0.92568692665720
C            3.65581462776590        1.20427114246764       -0.58804258211658
C            2.99859590915634        0.04559514435426       -0.18860744162680
C            3.55574853155222       -1.06900776457912        0.43344216482666
C            2.56732774997292       -2.02338894624231        0.67231080225374
C            1.34741844752911       -1.56183907122341        0.17677041862833
N            0.31267637718654       -2.33723394769924        0.00219630809224
C           -0.93478217366541       -2.19245286697555       -0.30804870189157
C           -1.85105968670428       -1.15463813175031       -0.10873727954253
C           -3.21527074835990       -1.44436964738877       -0.01074852475652
C           -3.91925242395867       -0.28783143705794        0.30261661383112
C           -3.02694737828576        0.77688272223904        0.34366753768875
N           -3.39373034785393        2.09984433130079        0.61062671152539
H           -2.79420430561798        2.56074096827444        1.28476211745499
H           -4.36439597051337        2.16470554309809        0.89128055046361
C           -1.71031099891063        0.30322465983592        0.05446752942022
C           -0.66332736847900        1.15016916240057       -0.32207565515658
N           -0.96595131176563        2.46264829007845       -0.50629621315159
H           -0.26626032500960        3.07850308679953       -0.88389984908084
H           -1.93592542657642        2.72878852819160       -0.58779902902132
C            0.73690315499975        0.89434990327931       -0.48530823723505
C            1.57722001793980       -0.15269915334790       -0.27789210835906
H            1.27733591260535        1.81094775467562       -0.72095097614979
H           -4.97828264486337       -0.21608415886087        0.47457176036631
H           -3.63808816232376       -2.42737290284165       -0.10453011599894
H           -1.38993154875870       -3.12923148227203       -0.63005751571840
H            2.71876817540463       -2.99091086815842        1.11007449198186
H            4.59820705296933       -1.17529156475956        0.67838232803044
