30
 energy: -54.092166426660 gnorm: 0.000676435355 xtb: 6.6.1 (8d0f1dd)
N            5.01575838682870        1.43559356363595        0.68464825031241
C            4.25394185181311        0.62432562215014        0.38854137884103
C            3.29588599428741       -0.32521034569674        0.05457286910628
C            3.47070682330080       -1.52839256554707       -0.61464251461221
N            2.33333103719983       -2.22002451038295       -0.79307540515401
C            1.35335177424868       -1.51644920971968       -0.22823704050038
N            0.19463050793642       -2.04390262752082       -0.00286210161454
C           -1.00285776184737       -1.67363068227934        0.34987280967933
N           -1.72936757335631       -2.62747416292132        0.97730571041583
H           -1.26901420516848       -3.48191257260173        1.24073918697001
H           -2.64527941063683       -2.41356730655234        1.33043614177041
C           -1.67959479775818       -0.47484789809056       -0.01351163748576
C           -3.04231958922885       -0.40287603461832       -0.30868913341411
N           -3.45741504398896        0.86895411462722       -0.52668939728284
C           -2.41315346432480        1.64864722017071       -0.31464865005817
N           -2.53741155467221        3.01747942035635       -0.44493661912936
H           -3.44664358589886        3.25555392507463       -0.82122786545659
H           -1.78172317940084        3.46585184668052       -0.94721841176347
C           -1.22109270783648        0.91048493391640        0.02249070889548
C           -0.05062178129476        1.50874050023598        0.48309807831120
N           -0.11109453887841        2.83951572804064        0.78593020732050
H            0.69194883398195        3.27018399838918        1.21204245443714
H           -1.01418503938049        3.24775606908599        0.96887729563803
C            1.28100052365340        0.98708352073764        0.56959032100674
C            1.87828964571205       -0.19136516202150        0.25736994461610
H            1.99955992416989        1.76474331650979        0.82608520530232
N           -3.94864224769338       -1.43519097081029       -0.40337009330616
H           -4.80330789805420       -1.14415073674433       -0.85631118467473
H           -3.57795362733219       -2.30314014353718       -0.76274737284748
H            4.40123381970975       -1.92939020567674       -0.97806317013259
