24
 energy: -43.750076251772 gnorm: 0.000718049948 xtb: 6.6.1 (8d0f1dd)
N           -4.01593971100672       -2.47510387354441        0.12022279679177
C           -3.48722548895765       -1.45407126599955        0.11965938949504
C           -2.84720968737407       -0.21441892397692        0.13800992736930
C           -3.41772540893308        1.01474811561082        0.50390661552417
C           -2.47338542646043        2.02497861113305        0.41391313421448
C           -1.27583892967554        1.51265469243077       -0.10118270212369
N           -0.16878155883210        2.16150436596210       -0.15650853504952
C            1.11230047928318        2.02705631403644       -0.23168176000852
C            1.92553022567147        0.93496964173367        0.09343103388268
C            3.31033487065392        1.03840321744847        0.30682394977682
N            3.92467698522297       -0.14008982456631        0.35884779797870
C            2.98699647255275       -1.07518001829056        0.12910089521479
N            3.31293061869423       -2.37906183751649        0.09303368640058
H            4.25087453790905       -2.63053792339105        0.35105651807903
H            2.60370504874259       -3.08836168357419        0.06817520610384
C            1.68962039868699       -0.50196802842946       -0.04982882525013
C            0.60518246721511       -1.18792047782528       -0.58272211022702
N           -0.66266773685428       -0.92621469919101       -0.48757348183662
C           -1.51058195648058        0.00563053530313       -0.28175958265672
H            0.80448598166547       -2.15378711973325       -1.04267342741050
H            3.87055161515302        1.94534548637223        0.44418671504586
H            1.63387336866981        2.94792579258058       -0.48293077500823
H           -2.62675598412017        3.06010942096226        0.65148701278170
H           -4.43965145602549        1.13831560666487        0.81578938811385
