25
 energy: -39.482013217684 gnorm: 0.000478788464 xtb: 6.6.1 (8d0f1dd)
N           -4.13688597886520       -2.15426571312899       -0.00024740022416
C           -3.48748278001160       -1.20485691887656       -0.00234703543220
C           -2.69610444116243       -0.05473002759560       -0.00098006569261
C           -3.17982404758413        1.26358520697490       -0.00074380540506
C           -2.10280233218824        2.12835072183878       -0.00039722250276
C           -0.89686328857141        1.40099347137271       -0.00025369219772
C            0.31375622036527        2.07285381161955       -0.00002251108707
C            1.65592593770349        1.71279025284647        0.00016751384505
C            2.36757923603011        0.52635608321465        0.00019452202381
C            3.76907736059872        0.54502786334721        0.00046135223410
C            4.25669732559031       -0.75779172626321        0.00042833024307
C            3.18322780348926       -1.63900663853465        0.00014419839772
C            1.97848371625408       -0.91831827603185       -0.00000907539153
C            0.76962138109612       -1.58704243805551       -0.00029942062475
C           -0.57437037147379       -1.22395194657179       -0.00051382541869
C           -1.27670390854706       -0.03416225321824       -0.00045381793779
H           -1.24001985041052       -2.08382473427772       -0.00076811032190
H            0.90661383636160       -2.66494636123026       -0.00038041431133
H            3.25154215247656       -2.71126188232868        0.00004822652748
H            5.29542765951253       -1.03635932414570        0.00059425816496
H            4.36769766780269        1.43743922136306        0.00066616397577
H            2.31794755213211        2.57475722814305        0.00035342577693
H            0.17100626453231        3.15014320648864        0.00002565307456
H           -2.16466261018564        3.20112795330667       -0.00037204106639
H           -4.21962913054515        1.53758502384306       -0.00109410884950
