28
 energy: -46.633523673069 gnorm: 0.000908305600 xtb: 6.6.1 (8d0f1dd)
N           -5.25992262613194       -0.10756585986472       -0.51313936976795
C           -4.12223531686817       -0.05167025775606       -0.34515187608306
C           -2.74583369091509        0.00762334008020       -0.14788550179514
C           -1.87958633706036       -1.13642378587395        0.02050998589347
N           -2.35783263961225       -2.40151136903581        0.04087589566429
H           -3.30833068054642       -2.55915301425324       -0.24739708670742
H           -1.71866546669256       -3.17492890372309       -0.00846937117601
C           -0.56499900891680       -0.70445746962647        0.16939046672559
C            0.47268213396592       -1.62584934989665        0.51172866748546
N            1.74131527555216       -1.62636134460292        0.41640931958811
C            2.69758121132203       -0.74664016398534        0.10158039872187
C            3.93128082547109       -1.15473582347607       -0.33178607154334
C            4.81509073773977       -0.02827103463482       -0.40518325257987
C            4.14621802743623        1.08568214809424       -0.02416958142602
C            2.76559454348970        0.73495550326793        0.23172047417790
C            1.81161381373574        1.70062724082654        0.28466703801966
C            0.39241220633108        1.70635312572096        0.26565293195892
C           -0.56945376340943        0.74842728425974        0.12908607778422
C           -1.97413716643840        1.14722688535094       -0.04477960749124
N           -2.42959113249669        2.40963925554628       -0.19936102867479
H           -1.86223055180743        3.19409164019970        0.06937778865071
H           -3.42504531330519        2.54929270503353       -0.24121522518757
H            0.00645992760609        2.72105564934607        0.29294232175620
H            2.22058883209360        2.70770810703163        0.26070171923579
H            4.53477013799298        2.08423779833660        0.05907895686282
H            5.84831819872466       -0.08829486329822       -0.69688382935955
H            4.19725980748492       -2.16617494793768       -0.57492164951115
H            0.08865738145468       -2.56850279073017        0.91035740117803
