28
 energy: -46.626134170855 gnorm: 0.000988771766 xtb: 6.6.1 (8d0f1dd)
N           -2.76223265028366       -3.11038605628847        0.31595060617531
C           -2.14274396240106       -2.15003468177358        0.19329761145082
C           -1.32561409587633       -1.00117089009003        0.06604474262912
C           -2.03746487819028        0.20951789443766        0.00208014644831
C           -1.48953832460524        1.58888400726012       -0.28280806623520
N           -0.35783908290482        2.11478991403447       -0.00927219486764
C            0.83440389962357        1.78759470354010        0.43399236688513
C            1.61977222752591        0.70351039345895        0.13482745122924
C            3.04231989740309        0.71445388899878        0.21251391095222
C            3.52419190065666       -0.53530620795963       -0.16208487069722
C            2.44645543134400       -1.38734258139530       -0.42548046224617
N            2.58111885942022       -2.67076150157377       -0.86477704739717
H            3.46969552310300       -3.11557556653241       -0.70642008871876
H            1.77813618592054       -3.27719102862469       -0.83015643554763
C            1.22491977651476       -0.67677296828155       -0.24500539462420
C            0.02354004236755       -1.34433001363918       -0.13107974013471
H            0.13193202410016       -2.42458739467167       -0.21653074803984
H            4.56090889053903       -0.81591510648222       -0.20897661983649
N            3.81817469758250        1.77067703335680        0.60064741048081
H            4.79006826529368        1.73112366211296        0.34004539416621
H            3.40628561928295        2.68835916667066        0.57185883924603
H            1.30292299837927        2.61054214218308        0.97342139437824
C           -2.58650964471952        2.35722194839418       -0.76690858539360
C           -3.72639412264633        1.61003962528452       -0.61448967647688
C           -3.40537656774582        0.31056054174409       -0.14825263221752
H           -4.11279589014101       -0.48505588862613       -0.00407344921228
H           -4.72644374191422        1.94486251681720       -0.82869406586269
H           -2.51333205242852        3.38420092954520       -1.06696654893362
