28
 energy: -45.852288330201 gnorm: 0.000840985635 xtb: 6.6.1 (8d0f1dd)
N           -4.73217285050178       -0.04691546050706        0.54542927944417
C           -3.42804964129542        0.04206066617131        0.23407175790812
N           -2.62815677777463       -1.03846901112163        0.36750057969336
C           -1.41803903477835       -0.65909194339204       -0.03848396493472
N           -0.51211536299555       -1.54718768849400       -0.30375458046578
C            0.78063844342052       -1.60008678279538       -0.44135655584547
N            1.24858310443332       -2.65773724077025       -1.14656538893095
H            2.22900747745762       -2.87435415790681       -1.10348584122752
H            0.59577273732263       -3.36899555439994       -1.42958964650156
C            1.74347112732960       -0.76587374534099        0.20087324708342
C            2.89612114043632       -1.25557226807763        0.81540725815643
C            3.64523187567238       -0.17759977098287        1.28499332830490
C            3.01642752593906        0.99201373804979        0.89591797543397
C            1.80673836892269        0.67825281692347        0.24123823245679
C            1.00155593221723        1.65796175294321       -0.39884104336594
N            1.66133257152840        2.80035722858292       -0.75665600422261
H            2.62428455813328        2.90219753891674       -0.49160790483844
H            1.14050569115139        3.63129460247820       -0.97734159632837
C           -0.37392436517611        1.68213683469961       -0.65177716186340
C           -1.41391605732339        0.81122184052898       -0.37291714856962
C           -2.75254330029379        1.16976748182427       -0.26531205221156
H           -3.18546523325183        2.13520428981632       -0.44392906329142
H           -0.72423777021927        2.65299530706721       -0.99781998586107
H            3.36436783518476        1.98044798349060        1.14447734525054
H            4.56335756738402       -0.24466417338482        1.84089833758675
H            3.12773392105918       -2.29518993487715        0.96982820816728
H           -5.32051565858371        0.76544040966219        0.52122312256518
H           -5.05574068949900       -0.88799440290473        0.98853735360814
