31
 energy: -54.593225177751 gnorm: 0.000959138622 xtb: 6.6.1 (8d0f1dd)
N           -4.35981506340896       -2.68270257862016       -0.81608129391342
C           -3.84252049259939       -1.69831484717935       -0.51762340030945
C           -3.17061996863751       -0.52883384984667       -0.17846216559844
C           -3.71136473977136        0.67776772205974        0.25234937281759
N           -2.77813919874951        1.60195613594385        0.49549266288163
C           -1.58146765566901        1.05065035576523        0.25616113603340
C           -1.74340917470555       -0.36627929496080       -0.15701820099855
C           -0.91562845216728       -1.39929582253568       -0.48124983291500
C            0.47825624267448       -1.69310878318452       -0.40112493917303
N            0.73821087916500       -2.99136107463858       -0.72869348129277
H            1.68345327317658       -3.26061140954639       -0.94790644496433
H           -0.00674831596085       -3.54854072548504       -1.11158618947659
C            1.56880546651140       -0.91326992006959       -0.00965249831454
C            1.75293407219097        0.56788945829243       -0.00075316566050
C            0.91813698164726        1.64474317136306        0.10893686464069
C           -0.45832281759459        1.86688887220889        0.31208461007554
C           -0.74452779027693        3.22490393765429        0.60903859397477
N           -0.88049012252098        4.34134228863656        0.83779171567588
H            1.44922526551490        2.59376388188157        0.11980753176627
C            3.17403297543551        0.78701807972192        0.02674155652011
C            3.81312006505518       -0.43147901556060        0.19736557182169
C            2.86220743772964       -1.45572239750727        0.19383501435041
N            3.19861711988411       -2.79154837914683        0.35212471201554
H            2.55303152900890       -3.33046730298699        0.91320515871684
H            4.15716374218205       -2.91853438407222        0.64732868523470
H            4.87218569334590       -0.57201906525658        0.31782755579970
N            3.82294941740338        1.97679979793674       -0.09363082249314
H            4.78444549475386        2.00344476832719        0.20075021469014
H            3.31022105795780        2.83562109632544        0.01301449595734
H           -1.47969320658785       -2.26850795422753       -0.81709979450254
H           -4.75266845307675        0.90842221310472        0.39158234986365
