35
 energy: -62.296013568195 gnorm: 0.000785500851 xtb: 6.6.1 (8d0f1dd)
N           -5.83354583722244       -1.30071741206564       -1.22597429420834
C           -4.78691195758814       -1.09721993680126       -0.79359602857543
C           -3.52032437437087       -0.80486283784792       -0.28889225958760
C           -2.61627123031702       -1.69024554029034        0.28550852701628
C           -1.41319947362091       -1.00839492564146        0.55374310000902
C           -1.62072547193808        0.38434936325765        0.18996552725258
C           -0.84077295449985        1.54705048069073        0.48940261227719
N           -1.56491903592175        2.62510256849711        0.87553316948401
H           -2.55530312815091        2.53540260737440        1.01846497816483
H           -1.11414354958723        3.50764375847053        1.04963494564528
C            0.53607688490463        1.74149182466041        0.31574700636138
C            0.97259099929483        3.07264006112351        0.48636159179615
N            1.30855962391133        4.16177518555801        0.64771214683609
C            1.58068095966964        0.87576503012476       -0.10763679123055
C            2.73823681365307        1.35987489141320       -0.67730548969834
C            3.68547076550713        0.31154243965961       -0.81474037401173
C            3.12381713422286       -0.85350308954250       -0.26798190661339
C            3.75027715230640       -2.09201485354257       -0.19615936380345
N            4.28737996513016       -3.10941546367532       -0.13197311090112
C            1.79382467807889       -0.56561386897723        0.16272443058583
C            1.05958696927979       -1.51680818250349        0.81890596631488
C           -0.31163186182473       -1.69137965984409        1.10617143813004
N           -0.59411060989344       -2.77242458706092        1.87356669302985
H           -1.55068809372807       -3.03258881213598        2.03668221136790
H            0.12762559358528       -3.43571239739665        2.09940934950119
H            1.64860911698320       -2.39398967720253        1.07983058840720
N            4.90028492419290        0.42078127867310       -1.37122718389983
H            5.51129933977401       -0.37677969283101       -1.40910338003588
H            5.22333190286964        1.30591472506103       -1.71850824615987
H            2.91321313339947        2.37656783324701       -0.97688932323267
C           -2.92662739818173        0.48711494844020       -0.30305874802865
N           -3.59151070535620        1.62202119806108       -0.74465656748137
H           -3.01061944490748        2.31889269834410       -1.18950587049018
H           -4.42119019428138        1.40981328774212       -1.28240610675606
H           -2.78607569597328       -2.74736472753932        0.37944611253512
