37
 energy: -71.334477372621 gnorm: 0.000459649039 xtb: 6.6.1 (8d0f1dd)
N            6.13567807107706        0.81139743287804        1.61344249361652
C            5.10026532659351        0.72847255402727        1.12027536575951
C            3.84407020740015        0.58035750874702        0.53080066134107
C            2.97625733484135        1.59910246709072        0.12685431875190
C            1.77637035516167        1.03143382165195       -0.31285344740906
C            1.93661291150346       -0.41681532319011       -0.25163556175957
C            1.13771268685875       -1.44083313679525       -0.82173684999770
C           -0.27084373444674       -1.57344646503182       -0.73881899952349
C           -0.78306357870831       -2.77540652831845       -1.27941524863695
N           -1.15730067667396       -3.71947544982593       -1.81823166870281
C           -1.22786774639815       -0.78978020925439       -0.07026729379501
C           -2.38912766199580       -1.35367862488023        0.47956144398353
C           -2.67326937283399       -2.70266940194592        0.70390525141861
N           -2.96549605131410       -3.78048969827216        0.97735634215989
C           -3.23947142414398       -0.31297000253190        0.94903293922185
C           -2.63151124349954        0.92310750939700        0.61510945930241
C           -3.18762678737749        2.14886042105843        0.98881006969838
N           -3.69999406412280        3.10015444215760        1.38141360663638
C           -1.38752099005672        0.67695969861924        0.00303938580163
C           -0.65345021103413        1.69341833153711       -0.62162268589313
C           -1.42714909509177        2.81615685025277       -1.00282503396197
N           -2.01712542035943        3.71401928878507       -1.41042446152389
C            0.74164703632930        1.84567820049760       -0.83496952714964
N            1.13844608213751        2.97613541092664       -1.45519425764466
H            2.12059830969152        3.17075044221013       -1.54423763443968
H            0.47446661953631        3.70089527741909       -1.67790181734957
N           -4.39003233250789       -0.47579822208004        1.60012347105790
H           -4.91533926801674        0.32726866353380        1.90529365750547
H           -4.73584550526705       -1.40123190624466        1.79452717492473
N            1.80706944498282       -2.47120636144039       -1.37704979542041
H            1.31291890618871       -3.27194885757927       -1.73670163447469
H            2.80836928785357       -2.42615831303630       -1.46332051585841
C            3.23072962065887       -0.66212936014001        0.24774809880623
N            3.84352823414158       -1.88487717798870        0.45213528803718
H            3.23479225133276       -2.64534990070991        0.72004759208995
H            4.66974169320579       -1.82491870913769        1.03197905743266
H            3.17720648925540        2.64754628651505        0.25095189559011
