26
 energy: -47.998583276435 gnorm: 0.000727649226 xtb: 6.6.1 (8d0f1dd)
N            5.75584553720024        0.85089986772471        0.45762523501293
C            4.63075548484255        0.68513837740790        0.29960844884158
C            3.26158786753155        0.46351133873908        0.10298522688712
C            2.67841797894166       -0.80391651992058       -0.18568068867144
C            1.31641743773596       -0.64490991724842       -0.30299020581049
C            0.41764423196277       -1.68895245189983       -0.70768499358890
N           -0.73499122903666       -1.93280068901952       -0.16448587536810
C           -1.77584745123251       -1.33427101181346        0.30212985834772
C           -2.85258573477206       -1.95858130724194        0.95745111146367
C           -3.88315490999228       -1.03841988182540        0.95606230632559
N           -3.53313010807010        0.16137161529060        0.44902778893939
C           -2.25837532710214        0.08775460778325        0.09836102738207
C           -1.52609069217408        1.25195236320559       -0.14706395021204
C           -2.32941198907336        2.42705283451363       -0.19779661125211
N           -2.92446197375608        3.40244993040239       -0.28010292544232
C           -0.15189523400342        1.52378503664523       -0.17219858691770
C            1.00837909979256        0.77091474031599       -0.10001493640767
C            2.25875512426257        1.41383529126081        0.10588062846951
H            2.38701767838806        2.46558564644790        0.28016310179080
H            0.05002440055095        2.59263021494888       -0.17580057859894
H           -4.88983425758085       -1.18715804431878        1.30454613906246
H           -2.88765248609495       -2.97804953298458        1.28301683529735
N            0.86727129266499       -2.58965727148704       -1.60245128819599
H            1.79952203511428       -2.52023224225882       -1.96905564346943
H            0.29607012099217       -3.38333274476219       -1.83894454254079
H            3.22865506460761       -1.72438803180501       -0.26053893414537
