28
 energy: -50.662262078244 gnorm: 0.000998495477 xtb: 6.6.1 (8d0f1dd)
N            3.96517346391359        2.22925430086538       -0.79800020059810
C            3.25695008597273        1.36728901093780       -0.51318553556614
C            2.46210925398088        0.27768945272624       -0.18141195500650
C            2.93449218716265       -1.07543896075596       -0.07692671222526
N            1.98261184927448       -1.92423461212599        0.29895082744802
C            0.83094882411811       -1.21986907210791        0.39560370989812
C            1.11882679261524        0.24044951431419        0.19462136126211
N            0.41364674114292        1.29205206901348        0.50880889395845
C           -0.84243708307883        1.59657755715609        0.61666423822849
N           -1.12392475342723        2.69676354556960        1.34706755481131
H           -0.35907292367628        3.25123751794324        1.69436612410846
H           -2.04391044178649        3.09647682883695        1.30136671565401
C           -1.94179507683283        0.97065464597303       -0.06036657087291
C           -2.99368876584811        1.65234226907591       -0.65466167430248
N           -3.93334851535229        0.81642681530611       -1.13771769315285
C           -3.55882706072291       -0.40168805405372       -0.80074992449498
C           -2.29871049280451       -0.42583048181765       -0.14287462805573
C           -1.70662929104376       -1.60079347430418        0.35958041933394
N           -2.54756357879593       -2.63563958905533        0.59100130875992
H           -3.52655355335287       -2.53413334822403        0.38982389223132
H           -2.18422755669929       -3.55258166314817        0.78523063051093
C           -0.33977142260843       -1.91055418861774        0.55759775611594
H           -0.15613181925594       -2.96655755800158        0.73421230353340
H           -4.14802047475329       -1.24574631575969       -1.11592281443192
H           -3.08404540699183        2.71285267399964       -0.80958373553997
N            4.18773381928155       -1.46783455303542       -0.31802199492485
H            4.87533352622398       -0.80383839216471       -0.62816510838041
H            4.43164494594660       -2.43379345934520       -0.18970065460830
