24
 energy: -44.549419850647 gnorm: 0.000545973588 xtb: 6.6.1 (8d0f1dd)
N           -5.94339813927306       -0.70427444686924       -0.84003157029805
C           -4.83853851198452       -0.51069086442077       -0.59554136596719
C           -3.48843272453281       -0.27194227970553       -0.31016283515973
C           -2.51573919632461       -1.25278699367198       -0.05850603207052
C           -1.29237258562099       -0.62418596115847        0.18959372537292
C           -0.16285860712033       -1.33066645530246        0.64787349876507
N            1.08852023930465       -1.05567427771497        0.52845645900228
C            1.91485960878247       -0.09552723314384        0.31787177395473
C            1.66517534675458        1.41176318075656        0.25991072891093
N            0.56128192143179        2.05677075090403        0.40765159541564
C           -0.71201657719454        1.89344438861568        0.52018692086443
C           -1.53585957340010        0.81823781340932        0.13505798808930
C           -2.89659765975875        0.98857803818249       -0.14286441466313
H           -3.40394117260191        1.93135694929215       -0.22992508623951
H           -1.23403235750007        2.79440436695182        0.83734347629294
C            2.84892277581377        1.98007925850817       -0.23328467943061
C            3.78911967512800        0.98707956701200       -0.44383321927653
C            3.23218848351712       -0.27345869836710       -0.15563795211944
C            3.88266281959976       -1.50660926430228       -0.26568369962267
N            4.42321631526164       -2.51465793054893       -0.36557281644148
H            4.79917204441110        1.13805994917381       -0.78038333417211
H            2.99420880450442        3.03352907519149       -0.37643471142576
H           -0.35193367958899       -2.32538466786098        1.04604248609720
H           -2.68341749370867       -2.31361948532883       -0.06895871528025
