30
 energy: -55.678858311323 gnorm: 0.000563847902 xtb: 6.6.1 (8d0f1dd)
N           -0.20592975410195       -4.53237306613802       -0.89786683573140
C           -0.20287021155335       -3.41721625171766       -0.62240404319510
C           -0.26367854719847       -2.03909685475430       -0.29836541404583
C           -1.53083233371009       -1.56103351330025       -0.25860066916746
C           -2.08580902366720       -0.27167077100127       -0.00767629215324
C           -1.56070286850331        1.04078699060119       -0.08460366381445
C           -0.33739234103255        1.61566902495765       -0.31368746202346
C            0.99282684407596        1.12517310504406       -0.31231219588938
C            1.87354664380467        2.21762120278437       -0.56350266324889
N            2.43834403836783        3.17463861332600       -0.84601175864389
C            1.56163417192755       -0.11217145756972       -0.07804717030774
C            1.04500827667988       -1.45666587568327       -0.01988686070542
C            2.09707133355296       -2.29031409785067        0.28100922276733
C            3.29752001809390       -1.53704030848294        0.45043936803858
C            3.00631302913482       -0.22609763591590        0.21083835299049
C            3.94717614739640        0.80005128458161        0.34499822564295
N            4.79148376803513        1.56195143137687        0.51074775118616
H            4.25694656856511       -1.93995716466382        0.71447064499111
H            2.03786012891545       -3.35924103343730        0.38132908388809
H           -0.36290052376446        2.69181402570655       -0.45861103598659
C           -2.76267948097949        1.91103918800062        0.12481221096311
N           -3.85144521523404        1.21272171445663        0.31115937626576
C           -3.47331934717708       -0.10333095702309        0.21682071436731
N           -4.40821891040911       -1.04265914475438        0.35991825228048
H           -4.18479658119901       -2.02084264097818        0.31188447540366
H           -5.35899089917827       -0.74980635367112        0.50240480925692
N           -2.75877442779595        3.23926686851578        0.16349846748704
H           -3.62709144139547        3.71322652097507        0.34459324661401
H           -1.91936421579477        3.77572678095290        0.03399397350722
H           -2.28888853975275       -2.31236475573846       -0.46486840543740
