24
 energy: -44.551858533527 gnorm: 0.000795599018 xtb: 6.6.1 (8d0f1dd)
N            6.10878276080197        0.54472097174572        0.48592439724882
C            4.97834666937182        0.39999150223408        0.35227120230881
C            3.59658681101621        0.21935239886927        0.19220852255743
C            2.62884802018933        1.21644406252809        0.23989281061295
C            1.35473076985878        0.64255112619088        0.03235871083154
C            1.59429486145395       -0.79981927908162       -0.17679412833049
C            0.67636750239241       -1.80863294377214       -0.51075051268855
N           -0.54963269275293       -1.92369234514136       -0.14922833689960
C           -1.60527928700962       -1.25771276196343        0.14587473237314
N           -2.68322866516570       -1.86099707517117        0.68230414369799
C           -3.69991401205315       -1.02205979080100        0.56446508355915
C           -3.34149394446355        0.21923288608042       -0.00084252343208
C           -4.18328449953519        1.30384540680149       -0.24909334156474
N           -4.86370844443300        2.20661908529948       -0.45386447379056
C           -1.94622205630662        0.16425418839945       -0.20828925615570
C           -1.12650439744131        1.27310030126029       -0.29594968211115
C            0.24559955800533        1.46125609844649       -0.13415119375544
H            0.51275924408773        2.51320773996548       -0.08989388602580
H           -1.68616778655481        2.20158620672362       -0.37235688769905
H           -4.68373332603929       -1.31255088470127        0.88829876569309
H            1.07180525444666       -2.67993936632672       -1.02827913630733
C            2.96174313110490       -1.01120212875610       -0.09874884208771
H            3.46134967848625       -1.95522128187315       -0.21100131015635
H            2.81658575134027        2.26021671324067        0.41053706212254
