30
 energy: -54.875594911007 gnorm: 0.000570408071 xtb: 6.6.1 (8d0f1dd)
N           -4.12156816798299       -1.85092309465315        0.40327635494299
C           -3.08399250586498       -1.38373992901240        0.24879083399583
C           -1.77345718908529       -0.86040952207922        0.10746490960265
C           -1.76737422897612        0.42849865275778       -0.39895373217173
N           -2.90854325532171        0.95488937216031       -0.88423629984675
C           -2.64707989243166        2.23750114242383       -1.08022630418744
N           -1.43957617779425        2.65539395485641       -0.69489003140970
C           -0.79584905396783        1.55590375223127       -0.28858328081622
C            0.45843167020970        1.67260300513717        0.30584590591102
C            0.76131012556859        3.00309663300110        0.68401785683506
N            1.05356308786980        4.05719874648860        1.03570737714245
C            1.52198229214380        0.74016000889576        0.44417656244963
N            2.65021336474440        1.22507408238463        1.00170420486885
H            2.70260355482530        2.18863337557852        1.29075110313608
H            3.44849840008518        0.62257556021270        1.11549381380106
C            1.59364085284054       -0.58411562067009       -0.05136439149378
C            0.63031025642138       -1.68681150594690        0.00306162862282
C            1.34439409065785       -2.85381381428951       -0.33768274445479
C            2.64168125650830       -2.52440618670593       -0.67534386227416
C            2.82215799579006       -1.15377898831929       -0.45589099742092
N            4.03331656046918       -0.49237682516801       -0.64188641315553
H            4.69345885621959       -1.04447595238087       -1.17242023388635
H            3.95267399994270        0.44490568960926       -1.01364774030093
H            3.39299899092320       -3.19747449292522       -1.04501243699486
H            0.92009454157980       -3.83537547454874       -0.44694043298291
C           -0.71828011548752       -1.77840827590050        0.39374275560544
N           -1.10499026758811       -2.94309953491860        0.96063848453058
H           -2.08420495518266       -3.15870687719953        1.06058590310859
H           -0.42740599212380       -3.66935577239325        1.11195530263676
H           -3.36298957509163        2.90594880297382       -1.52131680639380
