31
 energy: -54.611224553347 gnorm: 0.000810355784 xtb: 6.6.1 (8d0f1dd)
N           -4.77126127064121       -2.54140864976174       -0.59051868062164
C           -4.14788791768740       -1.58478465157876       -0.42804862079776
C           -3.42958399441758       -0.41493927399621       -0.22419346062592
C           -3.97453324919051        0.78790259717828        0.26961921769796
C           -2.94491363515383        1.75329580355517        0.36003240755723
C           -1.76166538722575        1.20943147750606       -0.10630302453624
N           -0.71337838665318        1.94806266114522       -0.38934709949741
C            0.55201183118023        1.81267638987564       -0.57532413117126
C            1.47204677320731        0.81856045578274       -0.20912568855576
C            2.84397213957129        1.07835334375343       -0.10499253545997
C            3.53276916387774       -0.14614604433353        0.15879923537380
C            4.90249061379376       -0.26705608892029        0.37656056044714
N            6.03232650940440       -0.35730902081175        0.57904475103210
C            2.60217978409025       -1.18363578844745        0.16354539755718
N            2.91032533906835       -2.48945658457384        0.34445972508410
H            3.84714069174260       -2.71727930744780        0.63118343518873
H            2.18748207942976       -3.15399557949416        0.55620457670661
C            1.28516375869762       -0.63391120890109       -0.07125050132756
C            0.22076314963667       -1.46762584873358       -0.29827268608544
C           -1.16934650209453       -1.30741188639861       -0.46255002918894
C           -2.02265098226348       -0.23985403744613       -0.37789349734399
H           -1.69200711108175       -2.25483130940248       -0.56577491398687
H            0.49549137697866       -2.51830485720315       -0.31130210078209
N            3.47934084664077        2.26977211914831       -0.22710959501291
H            2.94550053995802        3.12022714788754       -0.20514168753828
H            4.44389053556511        2.32176327709967        0.05377741586873
H            0.99693054958136        2.70239796731697       -1.02540600021311
H           -3.07510649899792        2.76814293330708        0.68413121649850
N           -5.26028317371742        0.97476044661946        0.60872739752041
H           -5.57617097423951        1.86919544938554        0.93786827545673
H           -5.93481634735841        0.25029644489104        0.43185630165760
