29
 energy: -56.765582699232 gnorm: 0.000636863102 xtb: 6.6.1 (8d0f1dd)
N            6.72439303886728        0.69841110796205        0.38223230489975
C            5.59065071742454        0.53352533025689        0.32817837550466
C            4.20286412509494        0.33418514303214        0.26349676827803
C            3.22631660038729        1.34676096927110        0.35969609891600
C            1.95750424707042        0.78249161087371        0.23696209175283
C            2.16114944967832       -0.67367701446664        0.06860012499423
C            1.31585775414621       -1.75248873359969       -0.06534852714031
C           -0.06758108334932       -1.92707961749040       -0.17804383885501
C           -0.43364824694380       -3.30112185889499       -0.30327266040872
N           -0.66128898055761       -4.42044552906874       -0.38829511283447
C           -1.17829471583220       -1.08457230975466       -0.24848349019723
N           -2.34507061638794       -1.70639409186051       -0.47889680802820
C           -3.30191764005346       -0.78491557742277       -0.54792834399308
C           -2.76581420847697        0.53720023530850       -0.32931244622335
C           -3.60052160468892        1.65398889642485       -0.38975273130796
N           -4.41192949395907        2.46153165420488       -0.49351461802598
C           -1.39581612115632        0.38208323265508       -0.12718217568199
C           -0.53558360545214        1.46054123469599        0.17457577498780
C           -1.19696986829057        2.70587282283502        0.38164694316454
N           -1.64971636538775        3.73725631937912        0.59288461096519
C            0.83610383830858        1.60611895882816        0.31448278480349
H            1.11524461267124        2.63737659625848        0.52083211937480
N           -4.57209342400803       -1.08101024064645       -0.78960982932437
H           -5.26607989219710       -0.35325145145060       -0.84057363391168
H           -4.82987443280511       -2.04424010122551       -0.92688945934696
H            1.84944290687992       -2.69924179411587       -0.11179317029167
C            3.55716365640084       -0.88603662939058        0.09722663440168
H            4.03828871669814       -1.84170884235289        0.00151249308701
H            3.43532779002190        2.39147323785807        0.49905236133917
