29
 energy: -55.975712889875 gnorm: 0.000611883869 xtb: 6.6.1 (8d0f1dd)
N            2.13229404619518        4.10436856475267        0.03193472164919
C            1.67007503910417        3.05530004299942        0.02265178934269
C            1.03336870237354        1.78326614115082        0.01309399104003
C           -0.36144805645665        1.86482343049231        0.00983893950979
C           -1.41547894114036        0.97394194883930        0.00236409224711
C           -2.72403444394757        1.48375192577020       -0.00466296776369
C           -3.64553912470405        0.43968713329087       -0.00725910095741
C           -5.04068297729218        0.54297766823823       -0.01848200744557
N           -6.18843836198815        0.58805343462310       -0.02956679060678
C           -2.93841132302251       -0.78855435081362       -0.00042636986580
N           -3.54764268182405       -1.98927331262634        0.00873864639673
H           -3.03354016396357       -2.85079945386245       -0.02494279920623
H           -4.55145703210049       -2.02792038778349       -0.02304668486406
C           -1.53864226272182       -0.50847268269950        0.00505838383801
C           -0.63124992809868       -1.54105898439222        0.01251845589946
C            0.76244792150455       -1.66907404754223        0.01050146801490
C            1.18939694523852       -3.02471801892324        0.01418931618516
N            1.46002515083171       -4.13931307626307        0.01771366817912
C            1.83009126279461       -0.76719438674444        0.00230126710026
N            3.06735530427611       -1.25497104150375       -0.00643583608093
C            3.87889289229350       -0.17717894688754       -0.01025177812622
N            3.24778829284749        1.01336840505674       -0.00254056104051
C            1.94802872352871        0.72676857938725        0.00445118800078
N            5.19980337639950       -0.28210570915818       -0.02115042431564
H            5.61972121960806       -1.19526228216286       -0.02707721649645
H            5.75774368322324        0.55399025701174       -0.02396598654848
H           -1.10106838449499       -2.52234187299119        0.01954990432862
H           -2.97922098016667        2.52730879010136       -0.00861306669177
H           -0.70157465329768        2.89816588693994        0.01241222257741
