30
 energy: -50.091628451909 gnorm: 0.000914729275 xtb: 6.6.1 (8d0f1dd)
N            4.69487524708826        2.02464655959399       -0.02473075868534
C            3.85272310796997        1.23784884504718       -0.00656202642061
C            2.88663139046511        0.24251982372608        0.01368356160628
C            3.16538591359577       -1.16150675186807       -0.05874012843339
N            2.05894953417293       -1.88984344508352        0.00227695684688
C            1.00499800004507       -1.03340499246074        0.08940654317558
C            1.49155874709729        0.36381740970324        0.10267719402857
C            0.85838862279580        1.59239298275061        0.23913752887202
C           -0.46385587335930        1.98814967764924        0.25840951790136
C           -1.70367769123923        1.38330722377208        0.08814805538660
C           -2.83066980831434        2.22136442989830       -0.02335769132709
C           -3.95665126544822        1.46673292997484       -0.27877609706478
C           -3.59284753644323        0.11599549327390       -0.28386340026644
N           -4.50575336185440       -0.92201241483102       -0.51745088895897
H           -4.17498862985873       -1.60890908241358       -1.18452268800821
H           -5.40617296406770       -0.55558119660462       -0.80101033246437
C           -2.20469384295157       -0.00061216955412       -0.02642711151176
C           -1.58484221981971       -1.23583107318271        0.23387348880489
N           -2.41993365759288       -2.28546662604365        0.46484747976038
H           -3.38948311800682       -2.10055902851121        0.66791675110443
H           -2.02601247967721       -3.16556958368911        0.74869986255225
C           -0.22465331811316       -1.62317418505914        0.21740807946276
H           -0.10398355449197       -2.70148209053428        0.28855373669943
H           -4.95149671401404        1.83789152058805       -0.45131636553892
H           -2.79693510883356        3.29379692705516        0.03522185400680
H           -0.56804902248809        3.06400270423879        0.37040125519516
H            1.56567324147634        2.41313952076021        0.31785646319343
N            4.38489841654201       -1.70430431074313       -0.17190200540052
H            4.47510995784628       -2.70340131027452       -0.20535769176065
H            5.19942497278132       -1.11770160898156       -0.20192952005464
