28
 energy: -50.661270324899 gnorm: 0.000586925257 xtb: 6.6.1 (8d0f1dd)
N           -4.03489972732415       -2.03077563089407       -1.25492647156223
C           -3.35787113423829       -1.21287600341544       -0.80877094745817
C           -2.59890345420187       -0.18007483450076       -0.27529797742661
C           -3.11025182431760        1.12086104365554        0.06148102453278
N           -2.18493639137466        1.91494375055598        0.58915888047869
C           -1.01696085822448        1.23111769001482        0.58386999529549
C           -1.26631148961056       -0.18264035684418        0.14270457950359
N           -0.54194588020992       -1.25564283723646        0.28224845201035
C            0.69897187133743       -1.59088968588759        0.44852618115895
N            0.90082125385697       -2.78818846859702        1.04176076827086
H            0.10212173642809       -3.35708829803419        1.26478665148889
H            1.82098115102516       -3.18752064015557        1.07139817343080
C            1.86556494139343       -0.89737224956218       -0.01453731564765
C            3.03205340114195       -1.49990578594579       -0.43773875276167
N            4.03139515525205       -0.61773112242215       -0.69299336893229
C            3.56035188845913        0.57370560686961       -0.38594170592387
N            4.33317707270416        1.68166253431035       -0.47698617725250
H            5.20697099187383        1.56212835372344       -0.96124122583187
H            3.89920042236589        2.58639795257677       -0.52880010418067
C            2.16472405683909        0.52534884303831        0.04710971654130
C            1.49492118254703        1.63889583555607        0.48211339025193
C            0.15129917916996        1.92961719526034        0.76623320793858
H           -0.03568065983002        2.96381216437821        1.03318625244920
H            2.12728231414869        2.51847159245925        0.56786865509173
H            3.20150850716906       -2.54488178248663       -0.62995881147922
N           -4.37304155366613        1.51714677362775       -0.12248138103611
H           -4.64728059453174        2.43449011901476        0.18126895465071
H           -5.04016078448165        0.90105304744094       -0.55251187640117
