30
 energy: -50.073668253727 gnorm: 0.000755431432 xtb: 6.6.1 (8d0f1dd)
N           -2.35055848564856       -3.25309370966149        0.43813706276941
C           -1.67126799910484       -2.33560128248498        0.28500676695100
C           -0.82697939699639       -1.21110741392717        0.14858027778331
C           -1.55735666627103       -0.01045007680359        0.10729339898051
C           -1.08761224588142        1.42243959698273        0.20710032132441
N            0.00353903108584        1.91692375045060        0.71660381328258
C            1.24056095463905        1.55971831255088        0.87964988280176
C            2.00658909960719        0.61666735461239        0.20321668294163
C            3.39291666547754        0.80796975542458       -0.04410674269026
C            3.86418484217074       -0.27369195266602       -0.78437534759916
C            2.83206622814160       -1.19163916935652       -0.92987240613387
C            1.65220788873942       -0.69339423163820       -0.35084571885601
C            0.53981991078615       -1.52789374676950       -0.09593001263568
N            0.79804434391339       -2.86277859472826       -0.17161312627819
H            0.05629051939770       -3.53555778375257       -0.08245736486207
H            1.74253393658006       -3.18333838303683       -0.26865578027750
H            2.92824053799755       -2.11337486022515       -1.47683045298236
H            4.86576931714053       -0.38651700940157       -1.15837041227061
N            4.15485413713305        1.88157330628733        0.36255243656642
H            5.00038048133358        2.02917517375150       -0.16626583369673
H            3.65850185348164        2.73012096958479        0.58224011366430
H            1.78216170049037        2.24278211065952        1.53523876123014
C           -2.17310839084761        2.22401691930402       -0.13203952551131
C           -3.29216805028264        1.40226929263074       -0.32512497771939
N           -4.52727652066884        1.81328889156370       -0.66213741935205
H           -4.72797590058966        2.79354084513743       -0.74733956149099
H           -5.28967232516095        1.15936617369080       -0.66879327430695
C           -2.91522436831342        0.05020480868722       -0.13811043019990
H           -3.57850294838627       -0.78775584175549       -0.24486841945177
H           -2.15953176606327        3.29555998258980       -0.17372299848206
