28
 energy: -51.430934419562 gnorm: 0.000758304793 xtb: 6.6.1 (8d0f1dd)
N           -4.15444748644971       -2.47454178857171        1.60059548270300
C           -3.57247500301432       -1.64185336534134        1.06261473328231
C           -2.87840969576619       -0.61329030192224        0.42963903112952
C           -3.42999333182810        0.57421503756651       -0.10961750724745
N           -2.54093806034898        1.35665020307696       -0.68300711597572
C           -1.32707636604278        0.77552892653692       -0.50454942422618
C           -1.52023741171041       -0.60613165207593        0.05048791982539
N           -0.73719027412928       -1.63005448930816        0.00379236240070
C            0.48765080648137       -1.88573900196099       -0.33996975312344
C            1.67028795256316       -1.17825316048339       -0.17179625305045
C            2.92283323351308       -1.84457110580656       -0.16142691328254
C            3.92768358670167       -0.90411891790228        0.12856423278089
C            3.34543142079567        0.33028740058766        0.28639835171593
C            1.93974377576520        0.24528626000279        0.09552469476570
C            1.14939850722094        1.38961105132182        0.00414562248993
N            1.69481672029594        2.56398475960015        0.40372131271314
H            1.20410102724690        3.42949203215814        0.25344602450058
H            2.63164942552754        2.59784121233486        0.75952438560383
C           -0.20593294302335        1.56802657891237       -0.50076986561094
C           -0.49373761657069        2.89661659506824       -0.91828183170419
N           -0.66654721155306        3.96936148874725       -1.28833794179280
H            3.91596174470094        1.22378867100350        0.46316854605228
H            4.97813494283673       -1.12076111059026        0.18991101916177
N            3.14523334290182       -3.17513938387195       -0.30159877929581
H            2.43320619787453       -3.76672496951775       -0.69223848296309
H            4.09662515209369       -3.48490524741436       -0.39450188526511
H            0.59204136535691       -2.91067377766219       -0.69469168209079
H           -4.46978333663838        0.84973120611419       -0.09205233819583
