28
 energy: -52.241887156004 gnorm: 0.000434419814 xtb: 6.6.1 (8d0f1dd)
N            6.07461962052885        1.43178967928096       -0.43712899190603
C            4.98154768128867        1.11981277457361       -0.27547354805577
C            3.65288103772963        0.72258655799027       -0.07961111462114
C            2.54411355922118        1.55584723312806        0.01199254345456
C            1.38557177384016        0.76698190577009        0.17599533130614
C            1.85092030786862       -0.61771694994061        0.24924573832770
C            1.06661419143075       -1.76601840781702        0.56288263787387
N           -0.06575542770477       -2.04563721169494       -0.01848457616633
C           -1.15232221216249       -1.51813410489036       -0.44427901714912
C           -2.10539210412122       -2.25071996972099       -1.20997453019802
C           -3.29472101248721       -1.58653401647471       -1.15518757267237
C           -3.14056793345239       -0.35960675469713       -0.42527167515597
C           -4.21054668655417        0.52093822395898       -0.23823994021164
N           -5.15107079297073        1.17073853187245       -0.12291170371907
C           -1.80764152746042       -0.23141943747470       -0.04005730586084
C           -1.18670198423048        0.95317203868833        0.39250146717011
C           -2.05854231532718        2.02345112422859        0.74070072732141
N           -2.67549577135604        2.92477957471288        1.08741325001722
C            0.14753126812324        1.36743991256784        0.39384547954739
H            0.23996526526673        2.43943296053451        0.55274641110070
H           -4.22697643599642       -1.90259452467589       -1.58764102778549
H           -1.91061699260410       -3.20366225338994       -1.66082368948094
N            1.59157115204190       -2.71251911752263        1.35881634655521
H            1.08958943895118       -3.56925484140197        1.51984952978784
H            2.51216428306458       -2.59481284887684        1.74276828432430
C            3.22574923216075       -0.61533148550675        0.10699780589879
H            3.87144139159982       -1.47444097901759        0.09500331950387
H            2.55690758909688        2.62684057019380       -0.06451592651596
