32
 energy: -59.114403204615 gnorm: 0.000632710106 xtb: 6.6.1 (8d0f1dd)
N           -4.68275121141405       -0.72240976966524        0.67812941139229
C           -3.75723404489170       -0.05078000538567        0.56204876461648
C           -2.64287133122787        0.79164632067331        0.50748913351975
C           -2.62368537699795        2.10956225000686        1.04421273428963
C           -1.36434680800358        2.62952952153326        0.90199990417824
C           -0.50744441744209        1.64977143457364        0.34169912534705
C           -1.35361501582895        0.44659485575913        0.09110095367914
C           -1.09652579085185       -0.74662662144692       -0.61062216640579
C           -2.20428601954331       -1.25017005118851       -1.32958000705965
N           -3.02529682528475       -1.66024682197663       -2.02282311692356
C            0.03428279724851       -1.60463040443338       -0.59982645302719
C            1.27720003807838       -1.37218473610780        0.03164794575118
C            2.12226256596012       -0.18771553713646        0.06809454850630
C            3.36749513664697       -0.66587296272648        0.53745913243510
N            3.33471870094093       -1.94996791153598        0.84942570313290
C            2.11938139934508       -2.40550039455424        0.49707928253123
N            1.82651320371775       -3.74937811859803        0.62935816809806
H            2.54936680675111       -4.22619642641730        1.15179596320524
H            0.89916643350345       -3.95988093476964        0.97300032845878
H            4.23900746384136       -0.08203249870207        0.77396387040585
C            1.94636607624851        1.15487485480309       -0.29314100115405
N            3.03501534084518        1.80103529880205       -0.75969972238131
H            3.04499689000008        2.80566568546883       -0.84034137639081
H            3.90354106491089        1.30056819827804       -0.84110022692396
C            0.78522560329814        1.96263127366558       -0.04886141995077
C            1.05080777781357        3.35509959846060       -0.09172294340874
N            1.30349930404526        4.47379166250614       -0.15985334576521
N           -0.12576880532621       -2.81901866272746       -1.16410774960301
H           -1.00385089496715       -3.07756563202203       -1.58435027657353
H            0.65212986030225       -3.45730519585818       -1.19293986724576
H           -1.04453540805967        3.60535941450273        1.21494777437426
H           -3.47123561865746        2.59146529131827        1.49612988179321
