27
 energy: -47.715451077253 gnorm: 0.000680078660 xtb: 6.6.1 (8d0f1dd)
N           -0.22571580856034       -4.44715276976549       -0.08560694414676
C           -0.09851572805496       -3.30712734357421       -0.07856686206025
C            0.11838262824744       -1.90144975810825       -0.06072357069696
C            1.46220961552896       -1.58874392274954       -0.11935237306598
C            2.21733000011659       -0.41412644484103       -0.12206856604107
C            1.96814684126107        1.01042385860391        0.12515394480891
C            3.26250346874996        1.59167979723270        0.02550595175336
N            4.20109063825293        0.70875423716865       -0.25988363876555
C            3.60253894189540       -0.48722865952899       -0.31525857875558
H            4.17629794030621       -1.37359192608644       -0.51408846447025
H            3.52687336829231        2.63287379729963        0.08562503279490
C            0.82897907278807        1.75935343481524        0.40691023093691
N            1.00255179799612        3.01959887658243        0.85546209761225
H            1.92543111779202        3.37714525867460        1.02558392913438
H            0.21585425684637        3.63071945171308        0.99389596083398
C           -0.55726749085112        1.43409379341841        0.21489739689405
C           -1.30720396815762        0.32485774429947        0.01173555592800
C           -1.07638348279677       -1.13710642769272       -0.04673287559539
C           -2.31956202266824       -1.73567471085653       -0.13212784260467
C           -3.33508555717328       -0.75640035208421       -0.16557987856594
C           -2.75272544942176        0.48649987510181       -0.09096645712134
C           -3.39792931147149        1.72300377588956       -0.07878678578883
N           -3.89359456318523        2.76097122908527       -0.06018025300349
H           -4.38888704654730       -0.95513889186399       -0.23861727418850
H           -2.49550055304269       -2.79407704565667       -0.18151268474143
H           -1.16834409922287        2.33504051581478        0.26201675703851
H            2.09613615648063       -2.46831995279021       -0.20451339802308
