29
 energy: -51.965114418108 gnorm: 0.000853406011 xtb: 6.6.1 (8d0f1dd)
N           -6.41488757355731       -0.00015983888758        0.02302410074680
C           -5.26708034830886       -0.00014253705621        0.01805482662799
C           -3.86496388381414       -0.00010569140386        0.01197308093539
C           -3.04686188097033        1.13618608814387        0.00918385637155
C           -1.70209230093808        0.73865667032205        0.00308223707040
C           -1.70206210575919       -0.73876579278436        0.00206474283474
C           -0.70649884800202       -1.70265454961663       -0.00306551637322
C            0.68605759065085       -1.71476007159897       -0.00898424193665
C            1.16942618630831       -3.05532494588745       -0.01370032301744
N            1.50941633426437       -4.15069491253848       -0.01294863793483
C            1.71108284958008       -0.74997845655692       -0.01237679007104
C            3.04129303583230       -1.14042991438895       -0.01815253293845
C            3.87051802329312        0.00007649291680       -0.02049852652863
C            3.04124994799997        1.14054596848203       -0.01616638571336
C            1.71105370531258        0.75003520358860       -0.01121310597951
C            0.68598713501762        1.71476714305002       -0.00637065522317
C            1.16929734633405        3.05536254576035       -0.00559303407417
N            1.50928364193195        4.15072574104199       -0.01013988682385
C           -0.70656859697992        1.70259267828409       -0.00053065789151
H           -1.12177031960012        2.70852139178427        0.00200335836216
H            3.39595577676014        2.15372623646122       -0.01675199663270
N            5.20792116682151        0.00010610846626       -0.02585589802823
H            5.71639093188776       -0.86677551848778       -0.02866920501977
H            5.71635835953939        0.86701031567277       -0.02720840839927
H            3.39603651962010       -2.15359481787615       -0.02040035371298
H           -1.12166055638459       -2.70860256498805       -0.00223148756595
C           -3.04681460041893       -1.13635872825844        0.00762586556772
H           -3.39539249788478       -2.15268910942992        0.00845099674161
H           -3.39548223953581        2.15250000728534        0.01140068710642
