26
 energy: -47.216228274937 gnorm: 0.000794733833 xtb: 6.6.1 (8d0f1dd)
N           -5.66836768917622       -0.84068553797241       -0.89878248237287
C           -4.58224954223343       -0.65710682107775       -0.57009066627974
C           -3.26112527445309       -0.42106790799921       -0.18085807950786
C           -2.48727665605703       -1.21756289675268        0.65642529778104
C           -1.20736948305265       -0.64194450513889        0.76140138589848
C           -0.17104650972121       -1.15879865506116        1.55886367937560
N            1.09476914881317       -1.18187145018794        1.31014403621658
C            1.95961975097204       -0.64445179901331        0.51782249619838
N            3.05860735187438       -1.29150984962570        0.14793854057554
C            3.73746853661735       -0.47468109142813       -0.68518528356409
N            4.90221229846890       -0.87057438695615       -1.20315592728503
H            5.42016632994427       -0.28024276437955       -1.82824431216101
H            5.26138118924133       -1.77171659263259       -0.93999603556197
C            3.07517769642182        0.75172844366263       -0.92447471180758
C            1.92643761010394        0.72530503098994       -0.16429892291990
N            0.99807285288627        1.64420578990266       -0.12038524413969
C           -0.27869414842826        1.68366806836497        0.08848845706719
N           -0.80568314482167        2.90917287183039        0.30261677697756
H           -0.20772666816170        3.71632695457215        0.25704080128824
H           -1.80197898465229        3.02668121628578        0.33448237469315
C           -1.23495074342333        0.59603705134536        0.00961219611213
C           -2.50129154006033        0.72416489169234       -0.53107424729887
H           -2.86101396283269        1.53342551290565       -1.14166072565348
H            3.41767805871898        1.54710181916209       -1.55461625532019
H           -0.45771109247271       -1.74209798509509        2.43161200232889
H           -2.78683853611633       -2.14993251289403        1.09711729475960
