31
 energy: -53.015678548372 gnorm: 0.000747545343 xtb: 6.6.1 (8d0f1dd)
N           -5.23525644638425       -0.00011809277601        0.40930098084275
C           -3.91033849106608       -0.00002567008590        0.20475312583392
N           -3.21347388127011        1.14030212333208        0.07631887406691
C           -1.94058621284397        0.74759842379556       -0.10639744358099
C           -1.94064167770561       -0.74747891019800       -0.10720009005619
N           -3.21355585016420       -1.14027788736110        0.07493669235590
C           -0.98910168452844       -1.69678702532855       -0.38820885767743
C            0.41421745806412       -1.71124657968535       -0.45653619806875
N            0.92713013724223       -2.92050176989822       -0.81413245837473
H            0.30255134025568       -3.64018439002119       -1.13251199350066
H            1.91068606326789       -2.99791068990930       -1.01305370539127
C            1.36126560118611       -0.73355732098367       -0.08817734363155
C            2.68832531089667       -1.07122585130866        0.26671119669540
N            3.44823516890393        0.00001187932819        0.51137353874802
C            2.68854342580231        1.07126092672865        0.26619203458056
N            3.25282125501789        2.33887301191336        0.41548697713088
H            4.18159347424274        2.24216714377617        0.80818007004225
H            2.68653224673375        2.96984114611251        0.96995293184985
C            1.36139120789357        0.73363162639667       -0.08847771967424
C            0.41422778887565        1.71136908241371       -0.45627889065089
N            0.92699478765376        2.92067197171724       -0.81405004115513
H            1.91031306011065        2.99782218116496       -1.01421544774113
H            0.30220538990334        3.64022990037664       -1.13231481832362
C           -0.98907035906311        1.69705445923007       -0.38689812200686
H           -1.43914946504541        2.67598561589129       -0.52552078357394
N            3.25240188873624       -2.33888588597746        0.41659867576350
H            4.18123731697503       -2.24212367922627        0.80914042135318
H            2.68607509177774       -2.96939211148265        0.97155263958317
H           -1.43924092814863       -2.67554602063939       -0.52783066482844
H           -5.69231993863384        0.87160327912722        0.60358268735642
H           -5.69237647088124       -0.87206920902385        0.60241680992928
