30
 energy: -54.108711138954 gnorm: 0.000940955596 xtb: 6.6.1 (8d0f1dd)
N            5.55194569251977        0.29333477910273        0.71947342082168
C            4.43295464635315        0.26377948567991        0.44777592173730
C            3.07459973182989        0.22339256356979        0.15076909229733
C            2.26853007109521        1.30627133770503       -0.18642106440132
N            2.71699373669116        2.58190660968849       -0.34285911417437
H            3.64531732294915        2.77755504943656       -0.00472287000548
H            2.05901887904620        3.33932217505946       -0.28447717671974
C            0.90950340609203        0.84403607153489       -0.35222539844302
C           -0.07283255086586        1.71150057083668       -0.77599240743377
C           -1.47068749172014        1.68551769048087       -0.85900553553986
C           -2.41329696669592        0.78393966507957       -0.42715760694307
N           -3.69705420846557        1.14783155454962       -0.24889758247615
C           -4.23025812636424        0.16038691731960        0.47926860871501
N           -3.42043204434069       -0.88609689099475        0.77834795894657
C           -2.27833416534330       -0.59773788742974        0.16870386576621
N           -1.34252110001992       -1.47272069551695       -0.01159787173246
C           -0.09782630848850       -1.54339487722181       -0.36389040924774
N            0.27115812799610       -2.75020852395583       -0.87944445581303
H           -0.47184728239915       -3.38343708404138       -1.12658606994849
H            1.15175799781641       -2.83097044975310       -1.35765587611246
C            0.94835723268180       -0.60086759514063       -0.11879854491380
C            2.26303333235063       -0.95732970536792        0.15423132614374
N            2.77028674027994       -2.21113269061043        0.38346865204362
H            3.67317548288824       -2.23015780587376        0.83444761395979
H            2.11678135325533       -2.90109820926980        0.72133451591938
N           -5.49381408438750        0.19497147372736        0.90712938446422
H           -5.84067279374406       -0.56306916066334        1.46530506382826
H           -6.08491239547674        0.95768479286243        0.63209698513680
H           -1.91675443085498        2.62033380455260       -1.18048906232333
H            0.31957798802289        2.68544312725936       -1.05487932245287
