24
 energy: -38.945617686951 gnorm: 0.000596675953 xtb: 6.6.1 (8d0f1dd)
N           -3.52417034147740       -1.73485602412166        0.25154714603042
C           -2.86692479810490       -0.53544026592099        0.15314447883848
C           -3.48281754787970        0.71156499369739        0.11764767350420
C           -2.50821133503798        1.69027637026404       -0.06787934211700
C           -1.24381386458313        1.10099448813741       -0.09859623135514
C           -0.07445194900389        1.83398331303268       -0.26694419411492
N            1.14353278153577        1.57564282172626        0.09020412825912
C            1.96063417434768        0.58965660981252        0.21555359346651
N            3.17696281957434        0.77077231141889        0.74615732268356
C            3.88653131251065       -0.33046972313755        0.46781539466382
C            3.16218554534575       -1.31398235958625       -0.19130691776660
C            1.85231209154847       -0.82566654492505       -0.31614324240793
C            0.74155826196365       -1.62509956016045       -0.48185232135370
C           -0.63218754908769       -1.43357569041583       -0.28532776425942
C           -1.45110399691115       -0.36258657708846       -0.00310058595316
H           -1.17926780491728       -2.36975561892251       -0.36007242159198
H            1.00031651634876       -2.66109302225769       -0.68576910330805
H            3.51918192381263       -2.27714205333993       -0.50078046568271
H            4.92055716722061       -0.37828150791021        0.76426801593238
H           -0.20583805007600        2.85801542906279       -0.61548966612868
H           -2.69171536444808        2.74713328219251       -0.13101663732725
H           -4.54134577799888        0.88294038068690        0.19346727895943
H           -4.48322030853979       -1.68114824620413        0.55423252436008
H           -3.01186413034276       -2.51745872424052        0.62428858556842
