36
 energy: -66.011391874416 gnorm: 0.000628633999 xtb: 6.6.1 (8d0f1dd)
N            0.15024435697102        4.36191778937155       -1.18265624677118
C            0.21807944604895        3.27307826274178       -0.81336476924552
C            0.32524470838011        1.92662940547470       -0.40790378171353
C            1.65669885130407        1.43097212698272       -0.34817340455215
N            2.62759985125241        2.31878230325070       -0.67410833748164
H            2.38342094791994        3.23516951782809       -1.01041867422177
H            3.58197922624356        2.00613858768206       -0.72613374355910
C            2.10057345898751        0.18807318402085        0.13892135160921
C            1.57915523891290       -1.16746667112576       -0.02132640903786
C            0.42519299733479       -1.68401385857519       -0.62660455734830
N            0.54982061431706       -2.89609293802221       -1.21523258393462
H            1.46465719932006       -3.29851230902063       -1.32668622756837
H           -0.25514293213384       -3.36896106116857       -1.59121905640255
C           -0.90541071432915       -1.16899760745993       -0.53771812174172
C           -1.89374797621864       -2.05581719418897       -1.02141162320011
N           -2.63853386006159       -2.77921885631426       -1.51753482603541
C           -1.42051754933087       -0.00375982872714        0.03545041604022
C           -0.89561283791020        1.39131254832231        0.04304484488033
C           -1.94472565812705        2.21574549979366        0.42976862870256
C           -3.06738537996501        1.43744614200381        0.74910138077254
N           -4.23453227156712        1.86784757784531        1.23926076164645
H           -4.96749796293995        1.20713205311090        1.43687946279946
H           -4.39672466976943        2.84775209166760        1.39030518124416
C           -2.75132897764497        0.07363201501937        0.48046830890718
C           -3.63795904329457       -0.96230331032562        0.76519062485877
N           -4.42277102622363       -1.74248191268302        1.08338552146492
H           -1.89269877383884        3.28416343964257        0.52243756485925
C            2.63326150878051       -1.99746663420810        0.44668769970187
N            3.66808576419056       -1.29587930332699        0.91180107734798
C            3.39142560552062       -0.00556110082194        0.68587953426942
N            4.32958893605501        0.95324559210130        1.02122176016167
H            5.07045591345652        0.54992918945929        1.57900640148227
H            3.95309406028355        1.79909409318436        1.42719783331725
N            2.66587676007120       -3.37757730140257        0.50864933295976
H            1.79248894750250       -3.81903168594826        0.76414067475972
H            3.43978345440268       -3.69116728418518        1.07945535422991
