24
 energy: -44.548262476140 gnorm: 0.000265204401 xtb: 6.6.1 (8d0f1dd)
N           -1.29563834277839       -4.13697804572670       -0.00373449254186
C           -0.92216633507586       -3.05429538722050       -0.00241585027352
C           -0.37730354079075       -1.73687391516631       -0.00143196580909
C            1.02060811713104       -1.72115426884264       -0.00162308576672
C            1.99818430451832       -0.74749990668665       -0.00083770724797
C            1.99769922488126        0.74876547059069        0.00058085375975
C            3.35076792458308        1.13025699207602        0.00069198399445
C            4.16077628657956        0.00133203304460       -0.00052886119580
C            3.35149907414930       -1.12811671763928       -0.00145356380253
H            3.69565168122896       -2.14583484022052       -0.00249058810266
H            5.23538614699934        0.00167973125290       -0.00071464893095
H            3.69426241204985        2.14819752890533        0.00160002434022
C            1.01949285003315        1.72178741691278        0.00175481354801
C           -0.37842814777265        1.73660359089737        0.00209067398117
C           -0.92413622616311        3.05367311206494        0.00362706807519
N           -1.29829408910221        4.13612640908214        0.00506072628936
C           -1.35995404711041        0.74579861420212        0.00126605277220
N           -2.64526528896437        1.12585486120798        0.00196066269126
C           -3.35149546304336       -0.00109503681779        0.00083896326671
N           -2.64453535729137       -1.12758827216247       -0.00051380386192
C           -1.35946967212704       -0.74670264903130       -0.00028944923859
H           -4.42530494037764       -0.00144263019217        0.00100653243920
H            1.43683950815764        2.72653693723697        0.00270304258101
H            1.43860482288563       -2.72563323286753       -0.00267633666687
