29
 energy: -50.368127680864 gnorm: 0.000766666526 xtb: 6.6.1 (8d0f1dd)
N            3.92170882081765        2.43836778382462       -0.97192035875851
C            3.35600323005230        1.50139717522638       -0.60999538960709
C            2.74169041465012        0.32887483793084       -0.19007613709679
C            3.43804733384456       -0.92742464504292       -0.03518317076782
C            2.54329236687047       -1.88174865892536        0.40739939063863
C            1.25138467451365       -1.31156960665347        0.48341352739378
C            1.41970970436929        0.15739956593297        0.22351738547419
N            0.62713719689058        1.16238399426282        0.47405373134031
C           -0.62646040267968        1.42535681546076        0.61455744885340
C           -1.76158860838374        0.74449357450809        0.17405836914107
C           -1.98985722482713       -0.69055700492156       -0.00791410731336
C           -3.41483717665526       -0.75884632677896       -0.28247237136771
N           -3.99903702412127        0.42791236013451       -0.27006828439767
C           -3.03226070516744        1.33218822778648        0.03148196717361
N           -3.36195352967706        2.63895628203591        0.15812303030500
H           -4.27567005043236        2.89946816071592       -0.17156809516821
H           -2.63505230982537        3.33098020918789        0.11188344267520
N           -4.13566862999158       -1.87998696818122       -0.50904621722516
H           -5.08145707720919       -1.73866797582660       -0.82099933657569
H           -3.66901254553898       -2.71791502598921       -0.80729190697344
C           -1.24959319823096       -1.81654644583089        0.23461516822805
C            0.11214550875804       -2.07830511143961        0.48292453907377
H            0.32250063591250       -3.13974538068214        0.58203053592861
H           -1.83309303155574       -2.73227027265440        0.19121869496075
H           -0.80341609380315        2.39303430404195        1.08499623313654
H            2.76867015229983       -2.91688098378823        0.58462422828000
N            4.74420089179605       -1.08409458028879       -0.32653002743982
H            5.22038268940361       -1.93061552451764       -0.07090756573943
H            5.28801458632223       -0.27985438992393       -0.58842905377363
