24
 energy: -39.754660384254 gnorm: 0.000838788164 xtb: 6.6.1 (8d0f1dd)
N           -2.11823390187774       -3.36491528705057        0.00694573764344
C           -1.52787175679143       -2.38128373672351        0.00511034103310
C           -0.76352059171102       -1.18069100597696        0.00275079839740
C            0.59765808563790       -1.43802322295097        0.00337448451384
C            1.76831417127787       -0.68166373164492        0.00189380693891
C            2.06297692584672        0.77940900999896       -0.00128600469413
C            1.29411634971085        1.91485327619270       -0.00340248826193
C           -0.08037211487280        2.18806723136848       -0.00338816274082
C           -1.22916957458719        1.43908444840776       -0.00167828359003
N           -2.38952904406231        2.15235043260675       -0.00279304113024
C           -3.38476238044666        1.29048199614271       -0.00125810888164
C           -2.94460002073265       -0.04704767061615        0.00097377519440
C           -1.55900370663460       -0.01301529854760        0.00072267955835
H           -3.56900682595822       -0.91906944761639        0.00253183118005
H           -4.40491739828798        1.63211956362158       -0.00169751432142
H           -0.31823556393234        3.24697159810590       -0.00533370323189
H            1.89472142915345        2.82032250614082       -0.00551757853598
C            3.47988903059391        0.88589111307186       -0.00189048150218
C            4.03731814138430       -0.37009429569505        0.00080129678081
C            3.00289029926527       -1.32188641486473        0.00313008766896
H            3.14271116571949       -2.38754245173298        0.00541310128098
H            5.08786971086393       -0.59796510677139        0.00107745986739
H            4.01346894980619        1.81832613274196       -0.00410979185288
H            0.81523494033509       -2.50456756370824        0.00561274378548
