28
 energy: -52.245534391687 gnorm: 0.000789304898 xtb: 6.6.1 (8d0f1dd)
N            6.09563936015738        0.49061119312720       -0.70731447734164
C            4.97871785817774        0.33454014536172       -0.49285064628501
C            3.61524306729247        0.15503241164036       -0.22660518953346
C            2.88882422846044       -1.01807509359370       -0.38634117284780
C            1.54095155921745       -0.77897204232272       -0.03979186657775
C            1.48425695756874        0.61244093906831        0.41465526864536
C            0.37712729014280        1.28386758441421        1.01164665186492
N           -0.83674036551306        1.26367800425139        0.53442794743375
C           -1.70629888281052        0.49774095449098       -0.00572414998931
C           -2.95620282158819        0.98563435720704       -0.50881686549399
C           -3.26238599322942        2.33636012790927       -0.68477334775682
N           -3.50271676122045        3.45113773352064       -0.82394675871735
C           -3.80462000973155       -0.10461145858029       -0.65800298498341
C           -3.12276345456163       -1.29208503829875       -0.34215519045081
C           -1.80842995558798       -0.99855878982093       -0.01192928768419
C           -0.76532716402074       -1.93960655597684        0.04255686917399
C           -1.20608576963824       -3.29132644221173       -0.00888683240465
N           -1.53411397315521       -4.38978094046908       -0.02022009934687
C            0.62355983959299       -1.82592750432684       -0.03906754075848
H            1.10432321260018       -2.78813861108890       -0.20069178802762
H           -3.54383145717020       -2.27798497439938       -0.40557684829199
H           -4.83070033610246       -0.04543300212366       -0.97413025461145
N            0.60395588416944        2.13171928021054        2.02864740617218
H            1.54096823489053        2.29469952657981        2.35209927616112
H           -0.14732180406718        2.70621923089273        2.37322583268226
C            2.75369556934104        1.14785787181887        0.30298367890932
H            3.04865058460000        2.15547923487987        0.53252814106338
H            3.27673511828616       -1.95102211776070       -0.74994119840416
