34
 energy: -62.570510022094 gnorm: 0.000947891349 xtb: 6.6.1 (8d0f1dd)
N           -2.14239624138257       -4.09449350191933        0.48108917693349
C           -1.74735249028042       -3.02596699419641        0.34597841984629
C           -1.16640150271363       -1.73387153007545        0.23849592869822
C            0.22659958717850       -1.75066640470982        0.48751439710559
C            1.23816390913042       -0.85144257614229        0.31789565052263
C            1.30227812443125        0.59826130098908        0.12201235414166
C            0.34798936152328        1.61368147889625        0.46176265721426
N            0.91230656450117        2.76380450565416        0.93540905501621
H            1.84829058097058        2.73214148564247        1.30081028474834
H            0.30565191365445        3.49853660769275        1.26328537299417
C           -1.03792182516670        1.64360932098964        0.29112655212100
C           -1.65916883403489        2.85905274485334        0.64815367864282
N           -2.16040625842933        3.84789071430636        0.96098795388313
C           -1.98006574638627        0.71873071489255       -0.24886953985582
C           -3.20853848989699        1.10055216200186       -0.72452195648426
C           -3.93747343391845       -0.10218303278124       -1.00028209175784
N           -3.24240902969846       -1.18718277753761       -0.67587023936635
C           -2.03959014629885       -0.76781219792236       -0.22407097188559
N           -5.16089347322517       -0.17901257202505       -1.52938365004158
H           -5.69275950404578        0.65087688150779       -1.71987652355330
H           -5.57716774072189       -1.08620432124209       -1.64884179485937
H           -3.57033468190371        2.09786293671925       -0.88057935062553
C            2.62677790570676        0.91098408110431       -0.17795701867184
C            3.42197441233716       -0.28495816297444       -0.14669966287791
C            4.77982955726437       -0.34480280607484       -0.44795411543260
N            5.89915363951526       -0.38462698790333       -0.71379135546604
C            2.60667213627486       -1.34338806811432        0.21955640450715
N            3.02897254454225       -2.61372349462460        0.40270731356833
H            3.96345737524195       -2.84736558353348        0.11309729019826
H            2.37267106456175       -3.36770749517388        0.50046951744835
N            3.18372923871542        2.12954630584803       -0.46213402038824
H            4.09173090141614        2.09433194554755       -0.90078851026586
H            2.56751777199701        2.84682001736323       -0.81119202517277
H            0.55793438151660       -2.75370031504901        0.74305645793329
