25
 energy: -46.691233407230 gnorm: 0.000589230211 xtb: 6.6.1 (8d0f1dd)
N           -2.81957352443945       -2.64344958680666        0.02051677348051
C           -2.36919788927964       -1.37671476740988       -0.07785175839238
N           -3.19439719463123       -0.37846190535356       -0.37828660939192
C           -2.45109425613661        0.74959528882071       -0.36042090133994
N           -3.05294968121596        1.95134712103785       -0.57536567914251
H           -2.47219334169079        2.69196889219166       -0.93667162613376
H           -3.97877957263635        1.88187669233243       -0.96918221201357
C           -1.08678186984728        0.50515464840305       -0.09552711713364
C           -1.01152834383620       -0.93458320460200        0.10777349318912
C           -0.00012101340750       -1.76366279177405        0.56068560831644
N            1.29354477963359       -1.68106040254435        0.40083454889026
C            2.23484786651422       -0.84924657440483        0.20132182939519
N            3.45496082366670       -1.19756323800727       -0.23665732488671
C            4.06292827365662       -0.06474944247439       -0.54537197838071
N            3.33676283177413        1.05255497208689       -0.48403783883544
C            2.16528048539000        0.69264253413378        0.03538608699467
N            1.14776980974911        1.45649727456606        0.11341483630532
C           -0.14514460574419        1.49676473233199        0.27109577371618
N           -0.62032901142396        2.71565763961383        0.68567680050398
H            0.07554777208139        3.35236737069230        1.04092779635438
H           -1.52858071010624        2.74125247187086        1.11973711519511
H            5.09460091811424       -0.04349647864979       -0.84895193288144
H           -0.30155407468924       -2.71613901062588        0.99234037748104
H           -3.76120459184190       -2.81533423944267       -0.28638000399441
H           -2.16842229835297       -3.40747465358634        0.01412114130333
