28
 energy: -52.247468513632 gnorm: 0.000565220870 xtb: 6.6.1 (8d0f1dd)
N           -0.86228386817181       -4.27479210831409        0.43770671443926
C           -0.82336551590617       -3.13149197158168        0.37265041803823
C           -0.87071810509619       -1.70810190419823        0.29028017374296
C           -2.18544879533641       -1.22139842241138        0.27910198298870
C           -2.76853695338835        0.02018482145858        0.22405664561824
C           -2.24717131809384        1.40423172514782        0.13774810904442
C           -0.97744391180315        1.96193331219912        0.06754039171730
C            0.33462292315648        1.50248035077047        0.06234054205775
C            1.24149485953381        2.59511634899703       -0.04679577355657
N            1.89218813200149        3.53443002587995       -0.13941315686801
C            0.94522249809381        0.23434544428920        0.14357306759247
C            0.40492386175262       -1.14738453335234        0.24537196683467
N            1.41327724589242       -2.03477081524030        0.29745706079978
C            2.55963023279992       -1.36466883404789        0.23979741601507
C            2.32912670694767        0.05450687320240        0.14004894923662
C            3.40827437300868        0.93506030411114        0.06893738593205
N            4.40324604290251        1.50948454607549        0.01928258503268
N            3.74674035566237       -1.96045549456371        0.27364904897959
H            4.59154290285230       -1.41549400058964        0.22639112745141
H            3.78649806586934       -2.96299445244191        0.34596335959237
H           -1.02351975887842        3.04693951453076       -0.00186998740725
C           -3.36991651162147        2.23835750178494        0.12059759395557
C           -4.53589257221796        1.46896659461192        0.18936348018558
C           -4.18048804270526        0.13719100794152        0.24912477573529
H           -4.85422955010188       -0.69759254076684        0.30813490254562
H           -5.53806729902590        1.85654558152674        0.19372728250727
H           -3.33372346140564        3.31097734651735        0.06289436463846
H           -2.91476296122230       -2.02673248113671        0.33295298254939
