26
 energy: -43.195578420766 gnorm: 0.000405167992 xtb: 6.6.1 (8d0f1dd)
N            4.23541249034695        1.99905961642909        0.77009516479944
C            3.54212699305302        1.11394158762473        0.52848113231431
C            2.72324135151731        0.02080922446625        0.24504245879897
C            3.12815097065933       -1.34327723076286        0.28779371121209
C            2.08083930713438       -2.14633151596807       -0.07052833047235
C            0.92114884018354       -1.34359774929178       -0.27116657060841
C            1.38621477026853        0.07747805168188       -0.17142722331228
N            0.81189506407484        1.18211528007858       -0.56010247102781
C           -0.37572455779050        1.62784569681797       -0.76727385825300
C           -1.62272977982678        1.21272411236776       -0.26033644412304
C           -2.64296314562899        2.13487320675210       -0.03951183071549
C           -3.75539966819384        1.47319266462077        0.48763127931629
C           -3.48285278127890        0.12072834271401        0.52261998818932
C           -2.15585299856427       -0.11009079800619        0.07964786758525
C           -1.66351253037726       -1.40044386109968       -0.17094795726523
N           -2.58545387918143       -2.39720540808795       -0.22094061805913
H           -2.30302635672475       -3.35931712950925       -0.27876431411765
H           -3.56185455920332       -2.18740341890098       -0.12602941722146
C           -0.32883997614788       -1.88494088758071       -0.30538981980445
H           -0.30303867438344       -2.97348712200385       -0.32257262719248
H           -4.16301816852402       -0.62090788791989        0.90313929297864
H           -4.67572588901825        1.93706980221716        0.79235919619243
H           -2.55955419430868        3.19290346373535       -0.20483153649719
H           -0.38550107650482        2.58423719169971       -1.28895631087794
H            2.09674885299908       -3.21836685763956       -0.13826444692720
H            4.11873886941885       -1.66631810332899        0.55471061818609
