29
 energy: -50.368005088358 gnorm: 0.000698799290 xtb: 6.6.1 (8d0f1dd)
N            1.89280017387255        3.47334047769996       -0.70193908747412
C            1.30603240625964        2.50801728609040       -0.48066713051876
C            0.56354494166054        1.32963544031273       -0.24665637034078
C            1.38473331991057        0.19259716492183       -0.08176344782130
C            1.04123986798669       -1.28173472099989       -0.12925415426334
N            0.00933528626981       -1.87125429553186       -0.66036339208539
C           -1.25828976565849       -1.62568266934332       -0.82214210643301
N           -1.90122598106857       -2.36256455296833       -1.75391602491272
H           -2.90610652517888       -2.35580276453848       -1.77322126738367
H           -1.40072590392150       -3.09404463169301       -2.22984054452775
C           -2.04545474329114       -0.77083497571731        0.00345762655479
C           -3.29549491820514       -1.08186705499636        0.53801358261354
N           -3.81337141398233       -0.06048287974882        1.22965385705372
C           -2.96622223021483        0.95418641390592        1.09459831018671
C           -1.80807856728489        0.60171384859556        0.37181710404603
C           -0.82022512582242        1.53562629928061       -0.03639789010786
N           -1.26209875593854        2.81163623832520       -0.15823911018769
H           -2.21970737685646        3.01566821401710        0.06689551730285
H           -0.61117135335241        3.57118686572005       -0.27437050199245
H           -3.16756197029245        1.88650939372952        1.59426526023994
H           -3.80126924029866       -2.03085163281187        0.50120750165019
C            2.17852456269792       -1.97559422472851        0.26965033828099
C            3.21270629373534       -1.05470804731111        0.46754151268083
N            4.46835691299614       -1.33742272034550        0.84297990960717
H            5.15001831361119       -0.60421457230641        0.92541266340493
H            4.73896654032731       -2.28214784430650        1.05029268126432
C            2.72641239605663        0.25839985556956        0.21167776683852
H            3.31214503956204        1.15354502361342        0.30742919484871
H            2.25307097262033       -3.04144258383474        0.35511126027618
