27
 energy: -51.736371310128 gnorm: 0.000652864745 xtb: 6.6.1 (8d0f1dd)
N           -2.50010385967133       -3.60421673986146       -0.57877815530997
C           -1.97200744002204       -2.59257646549479       -0.46783495248924
C           -1.26703308681019       -1.36357499882657       -0.35958331030495
C           -2.10382334489156       -0.24988191549399       -0.30697934772877
N           -3.41630086689007       -0.37283960555153       -0.14344868943412
C           -3.83102921204675        0.84000832079729        0.27949272409259
N           -2.87855759643571        1.78956056711204        0.39040057514196
C           -1.76982489100448        1.21060730775835       -0.05938038748386
N           -0.70878716285426        1.87646063483143       -0.36022488853286
C            0.54776817368780        1.72694232360835       -0.59703124313710
C            1.43732276742011        0.74212339027727       -0.15752815107490
C            1.19902907135823       -0.69574932311680        0.04597720575466
C            2.47004956338611       -1.27417005455006        0.29525151638434
C            3.44482294708930       -0.29343949322689        0.27802380095340
C            4.81832764101186       -0.44698125222006        0.48888328393915
N            5.95101786175268       -0.52464953523398        0.66614012631583
C            2.82067290673486        0.95665581364233       -0.03345784423541
N            3.49237290589915        2.11991830914486       -0.16042932405120
H            2.99889169296843        2.98780314419108       -0.26736677465713
H            4.46877006445115        2.14919360660778        0.07714075002923
H            2.64396645294956       -2.31962157730836        0.47173414697310
C            0.11275731947997       -1.52563964373561       -0.14817773766072
H            0.38186659555332       -2.57744667774481       -0.08002056307943
H            0.97702635672148        2.56356713834471       -1.14879567674796
N           -5.10035220877041        1.07420985800325        0.58764702601738
H           -5.77820195470441        0.34476427904255        0.45396981491822
H           -5.36318983166361        1.97716137451091        0.94047448000860
