29
 energy: -50.372009781139 gnorm: 0.000577011580 xtb: 6.6.1 (8d0f1dd)
N           -2.41253340995763       -3.13132027565507        0.61004572698500
C           -1.72969642042315       -2.22709206601938        0.41355543790506
C           -0.83691142160653       -1.15520932863052        0.16177969808991
C           -1.52632395419929        0.05336668863830        0.10752390389912
N           -2.83649387511622        0.03879218211723        0.37847814556307
C           -3.27292934093704        1.27178905154040        0.06634091087747
N           -2.34270022972530        2.11338063892748       -0.41725425759731
C           -1.19592521101795        1.42194278820243       -0.38780550651515
C           -0.02898628076428        2.04370778487897       -0.78804326978083
C            1.31015252257875        1.71897203757155       -0.63759549788281
C            2.02171065258959        0.64339968024451       -0.14263439048340
C            3.43098963706817        0.78353514299371        0.08249804184975
C            3.95072362290121       -0.44022527063956        0.47646237298104
C            2.92347836917511       -1.37817599158542        0.46776310285319
C            1.70668113401322       -0.77320653849481        0.12390613685626
C            0.52880546423913       -1.54119567464845        0.01968296175829
N            0.70521592583577       -2.87592095103181       -0.13640072374321
H            1.62848522313544       -3.25796345971034       -0.21715802315476
H           -0.08003884233418       -3.50109305985192       -0.06219472522946
H            3.06319999530376       -2.39777709452076        0.78106884253895
H            4.97345523130175       -0.63160781704874        0.74556170288152
N            4.17336538888494        1.92892501868819       -0.08393536096295
H            5.08730976377108        1.90508411819729        0.33964506385024
H            3.69750415645566        2.81018638821236        0.02251491930544
H            1.95698100430744        2.53832457085376       -0.93835461288741
H           -0.22118598746501        3.03192649608037       -1.18965650887379
N           -4.54715101508552        1.63025173385956        0.22954750960281
H           -4.84438636172551        2.54280468085051       -0.06306713624686
H           -5.20454097630217        0.94760187848182        0.56008935396218
