27
 energy: -46.121396790437 gnorm: 0.000872500914 xtb: 6.6.1 (8d0f1dd)
N           -4.85564511695502       -0.50190569281754       -0.81350386999343
C           -3.58708664059259       -0.32728252517139       -0.40558137132651
C           -2.87060597640428        0.88548798689406       -0.47996350010495
C           -1.60316776317603        0.69210768130857        0.03446738248893
N           -0.69509665813394        1.62404551250367        0.09227233918873
C            0.60200400538506        1.71010437557605        0.13686972802581
N            1.08691725533407        2.92263818535484        0.50601787794679
H            0.44134906758383        3.68068393946577        0.64605991156107
H            2.06747281511080        3.11403777949342        0.40754433732231
C            1.57225104220196        0.72929802754282       -0.24586517932505
C            2.82780070156662        1.00757111065029       -0.76921582592486
N            3.64527553186657       -0.06360296323436       -0.78014899804562
C            2.97576957354585       -1.04892775694508       -0.18872517853156
N            3.55217009217089       -2.27145043132584        0.01985631099931
H            2.93722579853603       -3.06292900124596        0.10780372198072
H            4.39086961297112       -2.42945128388821       -0.51553301738414
C            1.64434437244457       -0.66335865736623        0.16678583080236
C            0.76295694703967       -1.45327383607496        0.89953396663104
N           -0.53805422163869       -1.50076677856700        0.89961008812725
C           -1.52514906756507       -0.78716753833635        0.44164221013340
C           -2.76397838807339       -1.33096450076764        0.13798690518375
H           -3.04285334382389       -2.35571120125431        0.29076194080806
H            1.20951340662620       -2.26630473851338        1.47292114865053
H            3.16897941876865        1.93363209165476       -1.19954192556596
H           -3.25102296869611        1.81277571222121       -0.86335306702053
H           -5.30536220074917       -1.39299756976819       -0.70462146137167
H           -5.38547487284430        0.27280324551110       -1.17005143735513
