35
 energy: -61.494882374116 gnorm: 0.000742391605 xtb: 6.6.1 (8d0f1dd)
N            4.81198634892141        2.52522119154849        0.19678854824253
C            4.16723884748286        1.56942832001350        0.18474213249635
C            3.42485447285485        0.39923292629845        0.17122219335250
C            3.92132870152897       -0.89916275374349        0.51076572866617
N            2.99612839049401       -1.84162589344185        0.36344253677063
C            1.84849767101873       -1.23040802576689       -0.02241317900903
C            0.80218004013010       -2.03630424578671       -0.38198913966481
C           -0.57562014487531       -1.85480588455203       -0.62665047318168
N           -1.20228360368208       -2.98785525576089       -1.05288058814132
H           -2.14523592467555       -2.92674027560551       -1.39797931583472
H           -0.64451597745034       -3.77933663894663       -1.32269862604474
C           -1.41375326417758       -0.76939919168223       -0.31021128237618
C           -1.19340699044622        0.68404890642579       -0.34003380532494
C           -2.41298294393433        1.28824581106008       -0.00523624873030
C           -3.36888563103726        0.28080471092945        0.26380066155848
C           -4.66253098407764        0.49301303541819        0.72786800289895
N           -5.72522731474305        0.67229182312599        1.13521223250588
C           -2.77344052044139       -0.96795754599325        0.03323456948025
N           -3.45428245704084       -2.16988040346830        0.18657140513907
H           -2.90567945464279       -2.91749628975456        0.59060979896775
H           -4.33753202688881       -2.04692464838489        0.66603443379013
N           -2.71123984893611        2.64430374460095        0.08783013652572
H           -1.96278169460055        3.21622555774247        0.45561150201323
H           -3.58517969242441        2.81057821139770        0.57050782970165
C           -0.08965872587193        1.45513535976327       -0.80142352746638
N           -0.41767562525625        2.65007604981397       -1.36378907052946
H            0.30688154270395        3.25798561211971       -1.70273193921994
H           -1.37378848125772        2.84704572968708       -1.60288265962726
C            1.28380599487294        1.25832120047597       -0.63983052416796
C            2.06629347842867        0.23130538228876       -0.14748691004097
H            1.86768596608842        2.14313751060309       -0.88513965758027
H            1.10319056103825       -3.07983648883874       -0.40733680585954
N            5.16723593200146       -1.17199313714536        0.91878834384826
H            5.84379342487840       -0.43589549107085        1.01315486350078
H            5.41202397661648       -2.11977766586253        1.14150144943774
