29
 energy: -51.977694637292 gnorm: 0.000583489562 xtb: 6.6.1 (8d0f1dd)
N            6.84608520273597       -0.00065789616587        0.00206434815681
C            5.69826752276843       -0.00054647604876        0.00155865759770
C            4.29621293976575       -0.00040493117440        0.00103247007796
C            3.47772485342483       -1.13721394050710        0.00062767162383
C            2.13449495838196       -0.74224239783606        0.00026156858782
C            2.13464507902287        0.74187086454330        0.00043348788410
C            1.13664223805523        1.70772130202914        0.00025285522731
C           -0.24715890499898        1.70892533606352       -0.00003981192758
C           -1.24247070054943        0.73884758687320       -0.00033115302093
C           -1.24262020069928       -0.73852678825275       -0.00053027456726
C           -0.24750582867559       -1.70880874194708       -0.00046977240867
C            1.13629527579404       -1.70788889556887       -0.00015165835407
H            1.55226801038748       -2.71143237185052       -0.00021325874263
H           -0.67013747608476       -2.71030268772250       -0.00068977614528
C           -2.59717028300652       -1.13978242778757       -0.00055346483180
C           -3.08108487810208       -2.44870707677618        0.00002342318998
N           -3.52644336198703       -3.50923999147946       -0.00183027231864
C           -3.43709687232879        0.00038069468134       -0.00055454157230
C           -2.59694101705512        1.14037721765910       -0.00020330748345
C           -3.08059444731450        2.44939005556789        0.00081008807061
N           -3.52572541190145        3.50994944060589       -0.00117790021072
N           -4.77345400043008        0.00051395444813       -0.00052649841804
H           -5.28049412711540        0.86950421035304       -0.00041816639076
H           -5.28066795721056       -0.86837501954600       -0.00067175752843
H           -0.66958686828248        2.71050495797027       -0.00000216428970
H            1.55282024785296        2.71117950539155        0.00042554799272
C            3.47795514878640        1.13656979778463        0.00088951827001
H            3.82919489752393        2.15189601989048        0.00111709699282
H            3.82875941944224       -2.15261122899836        0.00061808623862
