32
 energy: -53.530435222097 gnorm: 0.000991421646 xtb: 6.6.1 (8d0f1dd)
N           -4.05063224604507       -2.59485624899049        0.26445699137212
C           -3.44456670880701       -1.61720938397061        0.17841796445511
C           -2.74604209357856       -0.42530773303467        0.07283405073315
C           -3.31960457575581        0.84398528233252       -0.24867757568973
N           -2.41352606036387        1.81461247867777       -0.25105833010037
C           -1.20840199036343        1.25004936026480        0.02050930936744
C           -0.15657981126020        2.10202807551195        0.22888480018725
C            1.24082015859589        1.96325285859951        0.35309619420567
N            1.86993999523830        3.10742357847517        0.73535156772925
H            1.35878831737859        3.97130199807240        0.77667381239636
H            2.87261641750950        3.13682495364263        0.76813909242596
C            2.07499637487500        0.88869962428977       -0.00586664607107
C            3.38817439890734        1.12789214852113       -0.46869046467459
C            3.98477421529889       -0.06872310006627       -0.80446975474620
C            3.10354327866462       -1.10715732982296       -0.48131021382381
N            3.40856070391548       -2.46768837498600       -0.65759824853555
H            2.64178168706284       -3.00198623798874       -1.04873627169252
H            4.24135190615497       -2.58223775257114       -1.22170194648843
C            1.90171772480175       -0.56111150062365        0.00747217345491
C            0.88856724993823       -1.37730729180429        0.58533434683641
N            1.32411690076724       -2.55730270999295        1.09794009471985
H            2.30663654714427       -2.77265694491428        1.08981285130726
H            0.66668424520866       -3.23895260732737        1.43300130200405
C           -0.49687168953107       -1.21035603998927        0.61637263106489
C           -1.36333580833397       -0.20913406287054        0.21685799091066
H           -1.02309765834784       -2.10518187909232        0.94343131744912
H            4.95808152859964       -0.19492279170648       -1.24426347894670
H            3.82535324006534        2.09211201352061       -0.65876896896873
H           -0.48915754416798        3.13621859812273        0.24087505392669
N           -4.61792628875014        1.06879861709404       -0.50129602429339
H           -4.91125897441893        1.99436382888693       -0.75560066450674
H           -5.26899831060604        0.30478430194148       -0.51841112860854
