30
 energy: -50.086053373779 gnorm: 0.000890498220 xtb: 6.6.1 (8d0f1dd)
N           -2.11087346605221       -3.34214737134439        0.20458497748572
C           -1.47791592160529       -2.38543224168321        0.13131694239888
C           -0.63692338259909       -1.24578154101833        0.08155062150535
C           -1.37564433176341       -0.06704494957236       -0.05327254464567
N           -2.66669030530621       -0.19211762681238       -0.36070095063902
C           -3.22451228480022        1.03391651735064       -0.25993366781454
C           -2.30195187108255        1.99297567292163        0.18411862695346
C           -1.07153428209242        1.35123746102991        0.29485196600022
C            0.06086848278240        1.96522883653780        0.81254382892476
C            1.42253883795659        1.69260557357149        0.73951632588279
N            2.22808866287272        2.56163115899129        1.41400354044114
H            3.22360406718918        2.49103616615747        1.30403597495081
H            1.84893485237096        3.41649321004258        1.78277405609501
C            2.10667653494882        0.71637209561573       -0.03688606166513
C            3.37938799918412        0.97204885936444       -0.56600971439907
C            3.85404633218534       -0.17052237703283       -1.19989243224330
C            2.93619416602880       -1.18775410837241       -1.00242547358217
C            1.81446055564464       -0.67641019660683       -0.31911511182864
C            0.75068746471973       -1.53006277887600        0.05469570650172
N            1.09053038431187       -2.82231318382156        0.27695169080587
H            2.04881254767118       -3.10066529858122        0.16315995084740
H            0.37733913875810       -3.53111423782128        0.33594047308533
H            3.02145727052824       -2.17854568538682       -1.41358358131025
H            4.77479120464835       -0.24894457342709       -1.74904481565765
H            3.87788664338910        1.92595220085213       -0.57498546341610
H           -0.16179011615276        2.91667502678377        1.29056356864255
H           -2.50267854009179        3.03179671994523        0.36057446449242
N           -4.52638619338137        1.20613075270074       -0.53992782348612
H           -4.92836991319166        2.12511934337153       -0.56775666818967
H           -5.03290375597183        0.42572558321969       -0.91905369943739
