29
 energy: -50.369873342095 gnorm: 0.000810195897 xtb: 6.6.1 (8d0f1dd)
N            4.42833456671508        1.94359738266801       -1.08996000250900
C            3.63791472157667        1.19906801415661       -0.70613013306641
C            2.74680539462580        0.23191676717549       -0.26187096992333
C            3.09429424406382       -1.14632785068081       -0.04172967323078
N            2.07465753075527       -1.86871864094385        0.40336179932228
C            0.99146393760147       -1.05137160329304        0.43621884236763
C            1.41519738773788        0.35618491249100        0.14772074895258
N            0.82063850856919        1.48491940336084        0.40843033578219
C           -0.38960082657231        1.88241849031385        0.63210624640349
C           -1.63434470700224        1.38064485894127        0.24128899253000
C           -2.71990238950639        2.25314118436351        0.08579369269910
C           -3.81396337659747        1.55291328690249       -0.39851503487829
C           -3.47050397367619        0.20646946985727       -0.49075966595784
N           -4.34729136129567       -0.79487456534704       -0.91685649101763
H           -3.93483565345175       -1.44717240153817       -1.57263975649904
H           -5.20565695349116       -0.40481009141256       -1.28584334506053
C           -2.11882663046608        0.03100070864577       -0.06939028759640
C           -1.58262313090872       -1.21883865930808        0.28182935073703
N           -2.45528873680867       -2.26205352013241        0.32439154964123
H           -2.13609712870663       -3.14466992388689        0.68516995380139
H           -3.44445418935115       -2.06575065263244        0.34237056300041
C           -0.24353592733738       -1.62442489524559        0.53727291765304
H           -0.15598713886069       -2.69506392568001        0.70422585568207
H           -4.77362264645093        1.96622866747703       -0.65237058087488
H           -2.67818111715969        3.31268312913084        0.25795486325917
H           -0.41966896258306        2.87975966430379        1.07095452021811
N            4.30556184563477       -1.67002309060696       -0.26027672357332
H            4.47828179539421       -2.62711783449492       -0.01016461921629
H            5.05385528784977       -1.08767066728786       -0.59241255784552
