25
 energy: -48.261124117916 gnorm: 0.000700878879 xtb: 6.6.1 (8d0f1dd)
N            4.55616394877528        0.66348993108205       -0.17947734534732
C            3.58568061176010        0.05182352065167       -0.13490985853015
C            2.45036482589435       -0.76355427650071       -0.11782610241979
C            2.44901316808758       -2.11461847905739       -0.54611546496907
N            1.26965197947500       -2.70078738545147       -0.46243929341753
C            0.42251507614845       -1.79215613404200        0.05656139850009
N           -0.69647626621542       -2.14401966436330        0.56903240093155
C           -1.86672850181107       -1.70949485919678        0.87622045570891
C           -2.50910260641345       -0.65330976581059        0.22638667735044
C           -3.87055411570261       -0.60759898901813       -0.12143577033186
N           -4.17624540811452        0.50325844269050       -0.77974207527689
C           -3.07537143005900        1.25726856750812       -0.80590420260175
C           -1.96031291866765        0.61918858425564       -0.23126226555098
C           -0.76693455674618        1.31130646922560        0.10942931324590
N           -0.88245942682996        2.65199014431692        0.15532296116839
H           -0.07620704224875        3.23945294500006        0.30134230916456
H           -1.77679786361812        3.08206892946090       -0.00400991528126
C            0.55890873803825        0.81375628631388        0.34074672600913
C            1.51233700199757        1.82726332505388        0.61883834193573
N            2.22688081836830        2.67555996595734        0.91622359663668
C            1.11327049337096       -0.45435757727310        0.18058361405038
H           -3.10889873247415        2.21101211375128       -1.30280985937669
H           -4.59730284799388       -1.38253051486677        0.03325340897883
H           -2.42472817072630       -2.32913437049340        1.57142013071443
H            3.30166633260664       -2.65227462159360       -0.92183388299198
