26
 energy: -42.392194261072 gnorm: 0.000743965849 xtb: 6.6.1 (8d0f1dd)
N           -4.75196933940172        0.07036944786013        0.62713896744657
C           -3.44966278252297        0.02520424657796        0.28496289287872
C           -2.67546733107105       -1.15927407828928        0.20302080436896
C           -1.38932467360652       -0.83193803731501       -0.17440464605363
N           -0.53481560655460       -1.74556970404818       -0.57839824447154
C            0.73964448726087       -1.83684243606142       -0.73749268501630
C            1.80434933404170       -1.07643137437027       -0.22507682596652
C            3.06019100198797       -1.63528131207501        0.03979456741535
N            3.92069134921796       -0.74454364614374        0.54028650569802
C            3.29121983492221        0.42642146654310        0.54231571731868
C            1.95384825310926        0.33368117878493        0.10009449951308
C            1.13286807491923        1.45444168370352       -0.14574604274752
N            1.77636470140965        2.65085282780192       -0.21143923929363
H            1.25670915646418        3.50998218784746       -0.24049078091818
H            2.76913993469794        2.69250811772703       -0.07073483237069
C           -0.26744910156551        1.55508864334794       -0.27661678455075
C           -1.32723155057243        0.67889572041140       -0.22423598655525
C           -2.64006734257244        1.12040001105493       -0.02413518658027
H           -2.95987909402030        2.14617140145494       -0.03744636672832
H           -0.59898231154749        2.59207887938581       -0.30523147749273
H            3.80416413826596        1.29122980802126        0.92889203155812
H            3.33934980626550       -2.66755747844979       -0.06979330208107
H            1.03819791845561       -2.75397199816878       -1.24652422059490
H           -3.04156349559534       -2.15608431244241        0.35615384485125
H           -5.26520967796502        0.92988242415372        0.55119871069175
H           -5.25617505492219       -0.78155853031231        0.79399199558050
