31
 energy: -54.590394914019 gnorm: 0.000653430749 xtb: 6.6.1 (8d0f1dd)
N           -4.44784626264633       -2.17151667346001       -1.59499398421132
C           -3.84732417922559       -1.28839278962664       -1.16608410284363
C           -3.11775842741917       -0.21130992816488       -0.67091783756297
C           -3.57214566030106        1.09432182216870       -0.47165879433362
C           -2.56124490935670        1.88629585004410        0.07592999162471
C           -1.39486279207354        1.12926815824533        0.18600089778198
C           -1.79042052439529       -0.28260469857197       -0.14434165488026
N           -1.24024967136062       -1.37773369788073        0.22002414819345
C           -0.09357190110161       -1.77061327428061        0.72515367081253
C            1.17745982796126       -1.38198516103008        0.38660282363043
C            2.28935715388120       -2.28403171370972        0.43392529179985
C            3.34946719889605       -1.70812746471378       -0.25062358939208
C            2.98936945657017       -0.41878472366343       -0.65961680036401
N            3.84672401298986        0.41894449567042       -1.34674441873094
H            4.66405929900058       -0.05196430156196       -1.70811441551992
H            3.40956407007930        1.02438309709161       -2.02681041659265
C            1.66608627859961       -0.12855961505257       -0.23120497423440
C            1.19370729305604        1.17576322012352       -0.03708526908109
N            2.08881674364334        2.18463801802619       -0.26411572256283
H            1.81505312655225        3.12272926809149       -0.01738106682037
H            3.07134639868996        1.96835046410015       -0.21318964182610
C           -0.11177641541974        1.65781878823803        0.34138360142532
C           -0.13143941797082        3.01005384318680        0.75280342181928
N           -0.13586029443558        4.09266184755256        1.14449834861332
H            4.30399015742869       -2.16785164982160       -0.43234397410087
N            2.30491242031715       -3.51450282854575        1.01601800109406
H            3.03116632424183       -4.14811939066269        0.72672472471455
H            1.42792729838368       -3.94046680291923        1.26162662072553
H           -0.20730256303671       -2.66772264653521        1.33069226585008
H           -2.64531118112114        2.93639346168131        0.28515039247965
H           -4.56202509302262        1.43786961528289       -0.71685343880925
