32
 energy: -59.127197015816 gnorm: 0.000720756275 xtb: 6.6.1 (8d0f1dd)
N            1.93648261825393        4.38113027475767        0.53122585634224
C            1.83360660625820        3.24985449131451        0.34744393018670
C            1.76447877543913        1.87274250676326        0.15210741539207
C            2.86810492777709        0.99246356503735        0.22663549820065
C            2.42053420985930       -0.33193166234443       -0.05652231824994
C            3.30807415146376       -1.40532787821795        0.01928470908089
N            4.14090884704537       -2.19181218200597        0.13151398789976
C            1.02496350032676       -0.31259601867431       -0.23286813242237
C            0.62391595330168        1.12472589219132       -0.21534106622324
N           -0.44267895877479        1.68257196650056       -0.68580654553596
C           -1.70536191916678        1.43162837424874       -0.83834639835082
C           -2.50083931424399        0.54580061193860       -0.12566216723497
C           -3.85929753876956        0.81529896549292        0.19047818136035
C           -4.35235606516519       -0.24690400653550        0.95601693085134
C           -3.36830128639546       -1.21446943725449        1.05342583241313
C           -2.18750033362695       -0.78437398644741        0.41089752165686
C           -1.14961374481063       -1.68061163671209        0.08926062364150
N           -1.45088635211038       -2.99635245287431        0.22892454293396
H           -0.74652929169099       -3.70300704919645        0.10024402333407
H           -2.39427712587124       -3.27824700700829        0.41857240627762
C            0.21767143504931       -1.44778891371065       -0.29563529288012
C            0.92398697121452       -2.62549578497476       -0.63961873717432
N            1.42793901513163       -3.58957258035646       -1.01235678128395
H           -3.49148012996608       -2.13086275008228        1.60289834010259
H           -5.33912808540360       -0.30555511970684        1.37656973360436
N           -4.56936521800610        1.92429563488764       -0.16473484225922
H           -4.06686959963272        2.73224631724556       -0.48912590886449
H           -5.40877706349938        2.11360400797869        0.35667431256205
H           -2.20027466760223        2.14609249541851       -1.49417008558799
N            4.12458780300450        1.32985266270689        0.52164177968381
H            4.84742355727024        0.62891214220712        0.51608143551056
H            4.35413335522975        2.28352924001159        0.74545041773503
