31
 energy: -54.586764564226 gnorm: 0.000660376155 xtb: 6.6.1 (8d0f1dd)
N           -2.42736891811052       -3.86609269060786       -0.24672065614470
C           -1.91349188517778       -2.84715924561388       -0.13709804030512
C           -1.17779613262862       -1.63120884953583       -0.06086867112698
C            0.20876048123065       -1.83371085839294       -0.31654495162269
C            1.31616776149980       -1.06606697259399       -0.14854281158606
C            1.55522786828065        0.36482761098002        0.04727291685093
C            0.74756745875822        1.48661651205257       -0.32594030192596
N            1.46162699127576        2.54899564743048       -0.80257203229194
H            0.95952084976532        3.35032646611720       -1.15073656680061
H            2.39505180126907        2.39495103373276       -1.14042957499199
C           -0.63019653647439        1.69541023428165       -0.18998808842804
C           -1.08561253281755        2.96753682073648       -0.59643264615504
N           -1.43995431511697        4.00278454777349       -0.95561005648982
C           -1.68204044402689        0.90791217276417        0.35814483699289
C           -2.87508727559569        1.43914652384817        0.79859555165500
C           -3.72348423167271        0.34631663086480        1.10873768043356
N           -3.17744330353705       -0.81172251119339        0.83419715268253
C           -1.91300171953794       -0.55617816928111        0.37173810189599
H           -4.71064149279741        0.40041515744690        1.53293335915963
H           -3.11486032977261        2.47756379433411        0.91971849924896
C            2.90973060921696        0.49779658558235        0.36197699571003
C            3.54482459462671       -0.77818300951885        0.33771013539031
C            2.62939970378258       -1.71844264862756       -0.03623517250961
N            2.88033636016606       -3.04192897978301       -0.23896148085962
H            3.74185343228731       -3.39887426450795        0.13923359084373
H            2.11301906961635       -3.69215691122150       -0.24813047772918
H            4.58114727372268       -0.94693987696038        0.56408402870126
N            3.59993272566359        1.64371823389706        0.66125533696680
H            3.06045817421006        2.42801017157145        0.99332489049850
H            4.47710782342373        1.50458400847968        1.13785203547329
H            0.40722121617055       -2.87410204625511       -0.55867782113596
