24
 energy: -39.750107618292 gnorm: 0.000406575320 xtb: 6.6.1 (8d0f1dd)
N           -4.15392271718319       -2.15246397533096        0.00265984332149
C           -3.50285367334031       -1.20482353443456        0.00029140695196
C           -2.70943474798463       -0.05486057618078        0.00043233558407
C           -3.19229717204811        1.26283777821045        0.00017439439955
C           -2.11494743650207        2.12967818444961       -0.00038637252961
C           -0.90849368034542        1.40682543206058       -0.00038753027010
C            0.29745197104526        2.08693452883530       -0.00093971399373
C            1.64198100815828        1.72881881833797       -0.00111273152553
C            2.32979152459345        0.53242003825942       -0.00084454991090
C            1.94193580019480       -0.90614566351853       -0.00027732160086
C            3.18325843277661       -1.57845832455620       -0.00034278478083
N            4.22042844445021       -0.74930720325597       -0.00085534915751
C            3.73594978608084        0.49207154192784       -0.00114901136753
H            4.39966068072281        1.33734426902705       -0.00157274959318
H            3.33117353116872       -2.64284352268680       -0.00003369242501
C            0.75102631810818       -1.59588977261412        0.00025079956381
C           -0.59613078892748       -1.23004068485916        0.00046979495564
C           -1.28991639004817       -0.03724213928166        0.00027190030958
H           -1.26408055451487       -2.08791198500486        0.00092723086687
H            0.89779606260984       -2.67227080758413        0.00058073691431
H            2.31201040108714        2.58419381497647       -0.00157034034401
H            0.15005912621333        3.16324767643620       -0.00133046903331
H           -2.17976757275489        3.20202963520461       -0.00084589129297
H           -4.23193328636033        1.53717474818221        0.00017299945780
