29
 energy: -51.148801183668 gnorm: 0.000900503592 xtb: 6.6.1 (8d0f1dd)
N           -0.03121576947901       -4.38923909102758       -0.62995998277347
C           -0.08926879263191       -3.26574456077417       -0.40629981040479
C           -0.07273029294125       -1.86179434494181       -0.17268592045116
C            1.24884967419674       -1.35163186010058       -0.29819528225495
C            1.80265532056832       -0.12953919911843       -0.09098895782289
C            1.31662292726127        1.23952193253240        0.02716889628355
C            2.44918147809492        1.99190588414309        0.28256961928174
N            3.58921279750287        1.25823149879416        0.37089121098647
C            3.25645584773800        0.01842021432267        0.10317266920753
N            4.17237149178565       -0.96928870201795        0.06574005023990
H            5.09290124718854       -0.74066063741235        0.39914991381834
H            3.89853966780771       -1.93443270158466        0.05081764305224
H            2.51447525266073        3.04819209133640        0.47389209021775
C            0.04870778511670        1.83422887486273       -0.26773706799118
N            0.13025024318820        3.10125578145802       -0.74049861933943
H            1.02681517694365        3.51738515171698       -0.91202658215675
H           -0.70454257576149        3.63829190557453       -0.90771521963394
C           -1.24211840924012        1.32484772973773       -0.06090960500524
C           -2.27390500070416        2.25972294341073       -0.31148532954996
N           -3.08892445851595        3.03629810771261       -0.54963308247698
C           -1.75882410414402        0.08468591526946        0.40851102094500
C           -3.04013407384837       -0.01419041575104        0.90075101193971
C           -3.38107315506231       -1.37880280298160        1.08418790076039
C           -2.34219023703939       -2.16073068515563        0.65768824482336
C           -1.26395632020510       -1.32116027395753        0.26039379969380
H           -2.29552028808477       -3.23306553535522        0.67956465699031
H           -4.31139577061841       -1.72809311155236        1.49386582056297
H           -3.68918245955086        0.81195684164071        1.12216801449245
H            1.96351785027344       -2.14444665378169       -0.50666673753478
