29
 energy: -50.366511657661 gnorm: 0.000920493166 xtb: 6.6.1 (8d0f1dd)
N            2.01754804636845        3.49722776103120        0.03966281924054
C            1.55731797557077        2.44537895423952        0.02961619772015
C            0.88048472213201        1.19714615971947        0.01505099957444
C           -0.53512058755170        1.36967794099468        0.00150756376958
C           -1.60176226062902        0.53694124531334       -0.01002734979001
C           -1.80600188961347       -0.92503710374846       -0.00834475383036
C           -0.94549128146104       -2.02373987944798       -0.01985221701731
C            0.41354717638529       -2.21212974352161       -0.02337609938866
C            1.53879387730739       -1.37046303466984       -0.01328568431791
C            2.82187547982636       -1.87216210036526       -0.01726587367866
C            3.71109480298434       -0.75590061362616        0.00413863395478
N            3.05745649041851        0.40159161413846        0.01987559964318
C            1.73364285694556        0.11356748911170        0.00889411179960
N            5.04769208976405       -0.80212824197067        0.00960172665794
H            5.53794018154470       -1.67734633580190       -0.00417721308097
H            5.55606180470746        0.06461390880745        0.02538843661377
H            3.11608786297444       -2.90383208722672       -0.03256569365319
H            0.70809968061057       -3.25721374145242       -0.03535337901050
H           -1.49271009277455       -2.96264886186505       -0.03668097351560
C           -3.20166727129609       -1.07671436115719       -0.00224408156444
N           -3.87189667081714        0.10974045964067       -0.01288149777068
C           -2.96317477185895        1.06210103041499       -0.02026870174038
N           -3.32435796450646        2.36211773831819        0.02449849265160
H           -2.66503982887872        3.07947650429796       -0.21872191364523
H           -4.30038445799411        2.55651541295297       -0.11886487331980
N           -3.93482542948133       -2.22203373047925       -0.04900601875674
H           -3.51831799948301       -3.07290916459420        0.28883632983465
H           -4.91510302671467       -2.09896579170104        0.14373620463037
H           -0.78976833337961        2.42731298614631        0.00786137138938
