31
 energy: -59.406575287967 gnorm: 0.000901146328 xtb: 6.6.1 (8d0f1dd)
N            5.64141929471661        1.66095105341593        1.05532128639898
C            4.58763919264533        1.33947369736186        0.72647292062040
C            3.32103818886153        0.90207848436485        0.33506999732915
C            2.15991774470299        1.66748740365091        0.23661019842436
C            1.08401312070518        0.84295462370612       -0.13545312688249
C            1.64398383112986       -0.49482195763526       -0.31421168563781
C            0.97537798764257       -1.65886960958557       -0.78782345707161
N           -0.12571674769568       -2.12313604537917       -0.26606479310200
C           -1.19152400866840       -1.70068618666675        0.31158817045956
N           -1.95166614570159       -2.53356880954995        1.04552017093176
C           -3.12504003403809       -1.94489955059198        1.19100043120243
C           -3.21126413898929       -0.67959063863941        0.56148928326892
C           -4.33932411825979        0.14226952617294        0.61901714250910
N           -5.29465066501897        0.77310150231515        0.71426259749838
C           -1.92679845925017       -0.41052690196133        0.05790872136685
C           -1.47532041048405        0.78918611554417       -0.48650986564402
C           -2.51184900497303        1.63964146412610       -0.94531026798070
N           -3.30703837393958        2.32813161807657       -1.40751511524151
C           -0.17016583612536        1.38234157456642       -0.51026127217931
N           -0.15530850949721        2.68622011308746       -0.86869539249258
H            0.71526641411968        3.18469185418132       -0.91100981472287
H           -1.01411052333986        3.19082703082218       -1.01827104138834
H           -3.90990625794614       -2.41695818384131        1.75544002021228
N            1.59921397907134       -2.45293718948999       -1.67582408822358
H            1.15957237622873       -3.30985143346393       -1.96677960515768
H            2.46716242542274       -2.16294367349502       -2.09093829655820
C            3.01470925108784       -0.42921682780804       -0.05394753553378
N            3.93854004396735       -1.44556165964119       -0.16181343326981
H            4.80929971009652       -1.26271097425066        0.31695896140902
H            3.58858760203150       -2.37990535200560       -0.00866448404607
H            2.11030837129852        2.70810551811476        0.50076142399971
