30
 energy: -50.088936834269 gnorm: 0.000703931466 xtb: 6.6.1 (8d0f1dd)
N            5.79632435143189        0.65603080570766        0.09616441684545
C            4.65321130351162        0.61530515586217       -0.03270927125898
C            3.26860053699688        0.51245170713626       -0.16293346261347
C            2.36134888987160        1.54297210105677       -0.44937644510311
C            1.06020327070554        1.04825237343252       -0.41676815922267
C            0.01420215306644        1.96285066710407       -0.63289851352720
C           -1.34619716954780        1.96653928986018       -0.51118487926074
C           -2.29750306034311        0.99723592907961       -0.15504946809199
C           -3.63178444192391        1.28751757881140        0.02498824398313
C           -4.28305229252218        0.05739662924146        0.33046170387761
N           -3.44189193282980       -0.97079768906954        0.32180922949330
C           -2.20659524440948       -0.47323769473829        0.04077213024651
C           -1.20939365681979       -1.39953594693283       -0.07711845268784
C            0.19801964722142       -1.42433850309971       -0.24288357791667
N            0.67783851227268       -2.68682202100447       -0.40226023447833
H            1.63523909181620       -2.81360826335510       -0.69156398243190
H            0.02655877730446       -3.43899035904184       -0.54726662706646
C            1.15795357880300       -0.40086849136093       -0.17028102817989
C            2.53973078464433       -0.67666542635169        0.00402466113615
N            3.14024549342155       -1.90492230577666        0.29603915132233
H            4.13171415223870       -1.79406361567227        0.47686458122963
H            2.69026216121845       -2.41411877633336        1.04746512167548
H           -1.62593008954399       -2.39955831666445        0.02077930405973
N           -5.59163167577660       -0.10202538651409        0.58485090695114
H           -5.93000543288579       -1.01757349941186        0.81934432873624
H           -6.20764642932916        0.68819002171806        0.62828180896746
H           -4.10506571337666        2.24826868445980       -0.04213893731991
H           -1.80670588257120        2.93244371397871       -0.69655565120969
H            0.41350762774895        2.93585367265083       -0.90686012530326
H            2.63567919091313        2.56628574582555       -0.62786369065065
