24
 energy: -42.957371169410 gnorm: 0.000995801077 xtb: 6.6.1 (8d0f1dd)
N           -3.43007416325101       -1.99468531079703       -0.06533621727718
C           -2.74963869523439       -0.83203392504128        0.11002945660403
N           -3.35886633322322        0.26028038721636        0.57217515342174
C           -2.43954258680204        1.23852226196775        0.57112543966684
C           -1.17861552052261        0.80481289689947        0.17050644012570
C           -1.36348556118125       -0.59983774485522       -0.15932767174483
C           -0.51137534757837       -1.51533649282147       -0.77206474444120
N            0.77163996273453       -1.64382416586854       -0.63880078233177
C            1.83245392053318       -1.01303357569096       -0.29309478424584
C            3.01511348430959       -1.60560716348798        0.18568828439692
C            3.84312619836958       -0.57144640539765        0.57728849379856
N            3.25663614992600        0.63661110832134        0.52292619975067
C            2.04841333243496        0.48488139440047        0.00882964894448
N            1.18180255313643        1.43145906349164       -0.03515442589160
C           -0.09028346986415        1.66513743950265       -0.17745083105183
N           -0.40565291236340        2.90561254985819       -0.61625950052254
H            0.33022967297614        3.58114388480247       -0.73205100723443
H           -1.36302309596117        3.20768239273481       -0.60941486070626
H            4.86519518183518       -0.64540070394234        0.90534535516418
H            3.24957039174312       -2.65017176917146        0.14048302351078
H           -0.97248134193747       -2.33724212143089       -1.31673957769070
H           -2.71656946971186        2.21945162844100        0.91613520779881
H           -4.33821641133627       -2.03197983822245        0.36652763013506
H           -2.91351667613135       -2.85505203470872       -0.11230399007950
