30
 energy: -45.273288215891 gnorm: 0.000604497301 xtb: 6.6.1 (8d0f1dd)
N           -4.95526761032124       -0.00071606134000       -0.28523056300791
C           -3.60295901188667       -0.00054485190589       -0.13546387093576
C           -2.79344376349107        1.13665081435678       -0.00422701936335
C           -1.46538822062034        0.74564593354871        0.15513349528457
C           -1.46517156115342       -0.74619469283162        0.15505693744596
C           -0.47221075514592       -1.67416838340763        0.42445755778868
C            0.92206606491145       -1.68112896132177        0.39964576935100
N            1.49103244779238       -2.84739322727962        0.83717488728458
H            0.92142965040197       -3.66909571907645        0.94405224775244
H            2.48038038674982       -2.97273278150644        0.72116029221243
C            1.83432469241223       -0.72677467454399       -0.11693315340722
C            3.06309830408436       -1.12345229921915       -0.67182169969201
C            3.78146894498700        0.00037808218469       -1.05163629060650
C            3.06291587142682        1.12407669107580       -0.67177319412420
C            1.83409234686342        0.72715495584296       -0.11725235889689
C            0.92159954964948        1.68131489382675        0.39921803776715
N            1.49032230966166        2.84769053315696        0.83683314012875
H            2.47962263494316        2.97330400449334        0.72071193620980
H            0.92047905432555        3.66929562616114        0.94399319721310
C           -0.47265734957741        1.67388767427395        0.42440293831985
H           -0.88671652167401        2.65828752586750        0.63678634479823
H            3.36901487430458        2.13588947417071       -0.87696130944075
H            4.73102900578304        0.00047020370610       -1.55711552708147
H            3.36937796973095       -2.13519498448645       -0.87705558799807
H           -0.88601043995189       -2.65872882231732        0.63662896138782
C           -2.79311991876593       -1.13753724484815       -0.00443239790778
H           -3.14224732045970       -2.15361867762926       -0.03864619229627
H           -3.14285956261808        2.15264006061176       -0.03827329173376
H           -5.39878147043253       -0.85652702747633       -0.57223099092490
H           -5.39902252782968        0.85503015681242       -0.57205377852724
