32
 energy: -53.516379884937 gnorm: 0.000718968376 xtb: 6.6.1 (8d0f1dd)
N           -3.50706870292174       -2.37972722716772        0.96945359025991
C           -2.64753271753037       -1.69973057432171        0.61313964070010
C           -1.57194520522707       -0.88552496608000        0.21339647661008
C           -1.99938981031515        0.40510802936605       -0.28448864466612
C           -1.40788895203010        1.73320264757928       -0.08152352002395
C           -0.25355050512993        2.18150061293281        0.47425820570068
C            1.02052867099192        1.60555134643666        0.74969632780195
N            1.91821373262686        2.48172748923871        1.33964219599718
H            2.68768553093919        2.06319818821299        1.83856006892437
H            1.51665599374459        3.29075946330782        1.78726751332939
C            1.52830179346259        0.41236894159676        0.25922208274888
C            2.93359544784007        0.26114756239184       -0.12781179354415
N            3.17253872212968       -0.90725500588580       -0.66979697651251
C            2.00214223484460       -1.61134207970770       -0.59740885044581
N            1.99985571045614       -2.91697034501294       -1.00583851411407
H            1.11707839878792       -3.28884644275093       -1.31946039027136
H            2.80155514378428       -3.16780500110098       -1.56280971596261
C            0.94687299718496       -0.85485666057377       -0.08223755910338
C           -0.31767321918136       -1.44474738944522        0.29779855679718
N           -0.21990573862652       -2.75712332570955        0.68989740377644
H            0.67291740878831       -3.09369647486285        1.00530617119312
H           -1.04278260004710       -3.19271540515087        1.07542092669907
N            3.90528667781293        1.21560208266221       -0.04801579759146
H            4.70331701419995        1.01091890461588       -0.63232879030325
H            3.58784086865028        2.17483767736986       -0.07230313179542
H           -0.24572112496451        3.25714149764060        0.64460738612561
C           -2.39843788958356        2.68615277598729       -0.56102054543304
C           -3.45434040400154        2.00642206729087       -1.05194303679220
C           -3.22663646676099        0.59799218969043       -0.84612211308934
H           -3.93182595931249       -0.17429577939476       -1.09513703639665
H           -4.33361944973307        2.41740936683585       -1.51423222773436
H           -2.24276351197730        3.74946641810796       -0.56605689368471
