28
 energy: -51.431112255322 gnorm: 0.000867259981 xtb: 6.6.1 (8d0f1dd)
N           -5.64661439463167       -0.18593393801403       -0.30110276375308
C           -4.52175608801258       -0.28902955733264       -0.08817988113074
C           -3.14351359493082       -0.36316304566722        0.12793961875202
C           -2.42620408637885       -1.41357002019160        0.68943613990875
C           -1.05913804091810       -1.10822127518063        0.62763653986540
C           -0.08404771733545       -2.03569658231594        0.98838432634886
N            1.05225555032335       -2.23663421637012        0.40427301822858
C            1.96290978136636       -1.60662460651847       -0.23929817530648
N            2.90088220932857       -2.26295427608368       -0.94663000964476
C            3.88120122058867       -1.39351206528476       -1.15701132660875
C            3.63115160045332       -0.11132056566292       -0.64112623116144
C            2.34583361397119       -0.14604637833986       -0.12207340731442
C            1.56271006943385        0.95857029291366        0.23834096465252
C            2.34579496597445        2.12592737342976        0.40776101728237
N            2.98145577773168        3.06795286152025        0.58460002007494
C            0.15348147002045        1.17315595615315        0.26463606305592
N           -0.21144759951417        2.47174661888789        0.39788420554395
H           -1.17712166336980        2.70205688405787        0.56215297959697
H            0.49061164042617        3.17724118686107        0.55133502150057
C           -0.92345463512854        0.25755876598427        0.10087768216728
C           -2.23275736218242        0.67735154534633       -0.20803948597059
N           -2.64469090532034        1.88975754612074       -0.72476114664937
H           -3.60614567910765        1.88752510407306       -1.03788293363272
H           -2.01627848310874        2.33020377931949       -1.38142026750558
H            4.28176154294743        0.73781672533443       -0.71326178297851
H            4.76174027832568       -1.70271954061217       -1.69310474626162
H           -0.36468743702771       -2.81628219668153        1.69116020848032
H           -2.83823823012089       -2.34347863794647        1.03236266455830
