28
 energy: -51.428690924573 gnorm: 0.000821505048 xtb: 6.6.1 (8d0f1dd)
N           -4.81845415491376       -0.27777728484941        0.30760336262098
C           -3.80937490819743        0.25801852665970        0.18036864763841
C           -2.63193451734412        1.00300722935927        0.07875395140584
C           -2.60746189116306        2.41714025993389        0.37340604691417
C           -1.33684114462160        2.88249707314828        0.29420124835219
C           -0.48842632297949        1.80392403665218       -0.13035323593157
N            0.68126018694413        2.02679778398411       -0.59001597883971
C            1.78630716542747        1.38557721353662       -0.88251922529793
C            2.25927263010027        0.26247124750453       -0.24767446831842
C            3.65181807879638        0.02370509312274        0.07304688426519
N            3.80439872672121       -1.07121004519115        0.79937250586816
C            2.58378101694541       -1.63411777272095        0.90927956795341
C            1.56365892200707       -0.88504258377177        0.32859683794947
C            0.28038292660479       -1.42971750466753        0.01243099768585
N            0.22366827177596       -2.78048708824437        0.04621731106562
H            1.05854145378881       -3.31647998599550        0.19864985953144
H           -0.64477460556894       -3.26037195734270       -0.12709271385623
C           -0.94003775967214       -0.77990231732120       -0.30007552032771
C           -1.98573822073751       -1.65639683909434       -0.67083972017471
N           -2.76238338786858       -2.41081657312149       -1.05895807672876
C           -1.33711646987643        0.56919081495907       -0.16421823857630
H            2.49767343012719       -2.55292519861662        1.46230355589276
N            4.69622278109911        0.81397217249709       -0.24946076387644
H            5.56702844683168        0.63055956725707        0.21804544211919
H            4.54632204329570        1.72498248521885       -0.64207712701738
H            2.45076830702983        1.95079615088549       -1.53163533378950
H           -0.99406762409462        3.88779352641305        0.43896436713717
H           -3.48803479665743        2.97948430010590        0.62750822423419
