27
 energy: -46.932679291103 gnorm: 0.000840511521 xtb: 6.6.1 (8d0f1dd)
N            4.08930796847060        2.18228087992847       -0.70169676709824
C            3.31831982220975        1.36519852930769       -0.44971407113087
C            2.45598017439006        0.31549755362971       -0.15891839296132
C            2.85131266720434       -1.06709223963228       -0.11029356095863
N            1.84676967986610       -1.87436566245464        0.20788653257285
C            0.73405363583870       -1.10768218249710        0.31189963857569
C            1.10789206364418        0.33717179874967        0.20667807316588
N            0.45866561671706        1.40849506615993        0.57515511147761
C           -0.76836807806535        1.76969978932955        0.71502155722941
C           -1.95792714760686        1.26805206633916        0.15593628642083
C           -3.02723334750112        2.12398292754853       -0.12221818763716
C           -4.06700036766761        1.38892580942022       -0.68705177106836
C           -3.70396327840287        0.05416837975731       -0.69055320275231
C           -2.38966042865864       -0.08508872553793       -0.18504142816670
C           -1.82580821875954       -1.34187178277822        0.11605819810285
N           -2.68463267929418       -2.39160790003582        0.13605850980876
H           -3.66405365509721       -2.25048128586382       -0.02907479218008
H           -2.33941553669170       -3.32956092992269        0.23676991389910
C           -0.48135229520449       -1.73360344683796        0.33698243831939
H           -0.35755304005624       -2.81164152882805        0.39593590292902
H           -4.32252875881929       -0.73441823379958       -1.08252419721992
H           -5.00118204825564        1.78656210155593       -1.03977260145505
H           -3.01473952455573        3.18730808646921        0.03130967036725
H           -0.86829328908904        2.72145190910410        1.23600705572490
N            4.08598193988905       -1.51607309039778       -0.35564232233991
H            4.28455323718084       -2.49385328972241       -0.24047018518090
H            4.81960680911761       -0.87205021839517       -0.59374791484159
