31
 energy: -53.809007961739 gnorm: 0.000810466450 xtb: 6.6.1 (8d0f1dd)
N           -4.61964865403617       -1.68421730664424       -0.96100712290145
C           -3.94618194868412       -0.79478356261638       -0.67643148232787
C           -3.13907807609733        0.28796212184128       -0.34034434937639
C           -3.53306901277693        1.67247843974098       -0.40720909711271
C           -2.51507561856922        2.45411723516822        0.02636323833280
C           -1.36984745822808        1.62368917839617        0.30445767361106
C           -1.83981976136925        0.21717264779978        0.14715056842579
N           -1.28430110551856       -0.89963914890252        0.57020974250678
C           -0.09395906442501       -1.37317166121277        0.70689077264253
N           -0.01493907678709       -2.53878296187550        1.40409477155010
H            0.88139821414890       -2.90042602757282        1.67621719746912
H           -0.84354982255628       -2.85110317312108        1.88093206122293
C            1.12980328422112       -0.91741388128781        0.10031810885053
C            2.15590025050816       -1.76249132719619       -0.31115288522162
N            3.27292745274821       -1.07893831612739       -0.69681335494147
C            3.02781133651477        0.19075062811420       -0.46889231944055
N            3.97147510921390        1.14629436125096       -0.75501538116471
H            4.73510192337201        0.76076966836276       -1.29449988789633
H            3.61097893493753        2.01564991251054       -1.12404834802005
C            1.68067135433079        0.41977046175951        0.03623255872868
C            1.21123100294631        1.66766070950384        0.41944827353338
N            2.15052585878201        2.66221448839290        0.59727195540295
H            3.07846014475722        2.37188694651747        0.86261669770884
H            1.82928702739132        3.52527488057864        1.00468865920042
C           -0.13421633442874        2.15754234421414        0.47275670312937
H           -0.15147315523208        3.24442539387832        0.54352983047527
N            2.16330558597226       -3.13449680793734       -0.36341201271677
H            1.26825583820767       -3.56967644742003       -0.53028767267297
H            2.91538047691833       -3.49739797206394       -0.93012811711535
H           -2.50982463450841        3.52638516267109        0.09458021316728
H           -4.50147196445338        1.99907173397730       -0.74262912405030
