27
 energy: -46.130764223704 gnorm: 0.000397470531 xtb: 6.6.1 (8d0f1dd)
N           -4.70435874602107       -0.00112480784769       -0.77281486876873
C           -3.42111104704591       -0.00082314684274       -0.37760424305858
C           -2.64530239043051       -1.15435047337384       -0.14088320009414
C           -1.37924473349084       -0.76741855467745        0.25219537127583
N           -0.41954302367615       -1.60175247792348        0.54689177214035
C            0.88132727444351       -1.60350569056352        0.50865147618071
N            1.49122844553301       -2.62913655536011        1.15333391589185
H            0.92351547015748       -3.37107289090707        1.52655121354012
H            2.46545079357906       -2.79743300855964        0.97469381591840
C            1.72856746835238       -0.71934728346118       -0.23155646393040
C            2.88828309119640       -1.06976957230212       -0.92905430271860
N            3.54939966979319        0.00060047447356       -1.37726209952346
C            2.88784327076411        1.07077142738138       -0.92920794682458
C            1.72821253739481        0.71997575794772       -0.23178800615880
C            0.88062025322338        1.60385040940000        0.50837658509680
N           -0.42023423060336        1.60152136946809        0.54666001174128
C           -1.37957493525023        0.76674409770455        0.25206045010886
C           -2.64578335630825        1.15307299302880       -0.14111354821903
H           -2.98298178510970        2.16562180738581       -0.25073715506972
N            1.49011441168786        2.62972556093787        1.15306939864873
H            2.46429791936076        2.79844777388734        0.97431584748805
H            0.92212772510205        3.37136725678610        1.52643503142950
H            3.22827675598797        2.06268894792965       -1.17256184410823
H            3.22911374625048       -2.06158441865005       -1.17227389134082
H           -2.98207732033330       -2.16706094123810       -0.25032301453587
H           -5.18197201062696       -0.86708205108246       -0.94672786981492
H           -5.18232203273023        0.86460339055825       -0.94691666719441
