29
 energy: -50.374132267971 gnorm: 0.000636144618 xtb: 6.6.1 (8d0f1dd)
N            4.67386970239033        2.07107240406654       -0.06011216691805
C            3.83663710781469        1.28035345202773       -0.02980322479052
C            2.88020801663967        0.27462907841651        0.00240705515577
C            3.18530959053792       -1.13351822394088       -0.05617215020979
N            2.09481342493237       -1.87445368587010        0.00445808883822
C            1.02212823708059       -1.03264352105065        0.08588398784477
C            1.49046157413088        0.37631131493897        0.09100115824159
C            0.84600945524401        1.60854321260727        0.20760950943095
C           -0.47423955063950        1.98802940305778        0.24847643667496
C           -1.70354721763354        1.33988287200202        0.13726146091598
C           -2.87454255440877        2.11263206476121        0.08599602030976
N           -3.97731552160827        1.38665135893689       -0.08661136895421
C           -3.59076632641194        0.10965843209954       -0.11592304109157
N           -4.55286909632195       -0.88746044173666       -0.28274857894665
H           -5.46380657680553       -0.44986132358531       -0.37013811375391
H           -4.37345794827469       -1.49200921320032       -1.07699446445512
C           -2.18411157172427       -0.04546530974206        0.04212738685995
C           -1.56499653511630       -1.28760289786369        0.21740688227410
N           -2.38519972163965       -2.35243401214576        0.38712953042883
H           -3.36243396242417       -2.18517652044865        0.58128865589004
H           -1.98772364267497       -3.24887049054596        0.60904262709907
C           -0.19071540579608       -1.65117115243192        0.18550091701544
H           -0.05101914193295       -2.72880159118380        0.22143951361295
H           -2.93508952687608        3.18443280932645        0.13864522605715
H           -0.60531083953551        3.06198015144438        0.34733228767150
H            1.54961026562680        2.43428116241692        0.26077707547986
N            4.41664610988466       -1.64524865180077       -0.15683297302335
H            4.53440371809829       -2.64206300685032       -0.18715233855333
H            5.21634784944630       -1.03837595483188       -0.19558850609872
