31
 energy: -59.394523109494 gnorm: 0.000973847996 xtb: 6.6.1 (8d0f1dd)
N           -4.95079500015931       -0.10229262714772        0.88712193055880
C           -3.91695949558020        0.35577958064869        0.68577877525805
C           -2.67119375473631        0.96436540985333        0.50974480425948
C           -2.37548823254445        2.30464508514458        0.86616760445051
N           -1.11921782321141        2.61409459259254        0.64787817191371
C           -0.48348071604214        1.49668400923334        0.20857121880912
C           -1.45809244356628        0.37767378307243        0.11984438824253
C           -1.36470398981282       -0.90045799672455       -0.45354194565167
C           -2.57016353272770       -1.37583578033075       -1.02113745094040
N           -3.49570721401663       -1.77808531954202       -1.57147548322898
C           -0.29542402823478       -1.83004145548718       -0.47086289145126
N           -0.57278709905086       -3.04801267987291       -0.97654776350363
H            0.13642151537570       -3.75992135468886       -0.97556923592116
H           -1.51269663837104       -3.28642954373983       -1.25200995143752
C            1.00783072002013       -1.67506176403060        0.06801206170477
C            1.74229898968751       -2.76464831939216        0.54084420261661
N            2.99996224767370       -2.44588451314033        0.86812272893776
C            3.17536329959910       -1.17595148575733        0.52616348942655
N            4.40176880967852       -0.57166455694535        0.70335222206355
H            4.37852868408973        0.38135154483072        1.04208380273481
H            5.01593320689288       -1.16229812814647        1.24921154366999
C            1.96621580088595       -0.57704841027441        0.03974716450468
C            1.91134427293386        0.74510322756109       -0.40612238794005
N            3.05151586392465        1.28537162849145       -0.87942932674689
H            3.09779734513865        2.26302995597962       -1.11796285170245
H            3.85292687530512        0.69487488179230       -1.03133213656207
C            0.81658369215699        1.66061863653030       -0.22369834635159
C            1.17372793273820        3.02918885965228       -0.35702273182813
N            1.53123537721963        4.10888008699750       -0.51256958496414
H            1.38527852861910       -3.75813574266800        0.74465382870123
H           -3.06096178288502        3.01842012171051        1.28596816427760
