26
 energy: -42.396069907443 gnorm: 0.000753524673 xtb: 6.6.1 (8d0f1dd)
N            3.54784441664244        1.31238190440523        0.48274760560286
C            2.76697868822894        0.17800885155060        0.24413390600303
C            3.29883955461161       -1.12408392882883        0.23645701455718
C            2.28415236349040       -2.01025151685217       -0.02989162578229
C            1.05436017957543       -1.31824130552514       -0.13713255342705
C           -0.09370723206629       -2.07354828883603       -0.29341597707146
C           -1.46140574747226       -1.84367491724396       -0.23972669486616
C           -2.21976394810729       -0.70363761179627       -0.07138047151973
N           -3.55608672467504       -0.81123146995742        0.04557660334926
C           -3.99660677139842        0.44296304250289        0.13145306055761
N           -3.08551193393354        1.40130292119273        0.05001255780560
C           -1.90226169916486        0.74963439344790       -0.06621972465191
C           -0.77160372525890        1.50429838228948       -0.24542435676268
C            0.61960475042544        1.27727483176800       -0.29327118886672
N            1.32779549415629        2.40469079055106       -0.57267395356746
H            0.83149576393838        3.23205249143662       -0.85494321855290
H            2.30582026211625        2.32855898700788       -0.79939592032275
C            1.38373658994686        0.12314242914202       -0.01760570590882
H           -1.03047146505246        2.55599128753883       -0.34132718472291
H           -5.04232967608908        0.66564147912923        0.25192452399066
H           -2.07950330910013       -2.73194402225867       -0.30610380713241
H            0.14114898071403       -3.12753124474607       -0.41541489259903
H            2.38264458312711       -3.07806123440140       -0.09165533106154
H            4.33167148304926       -1.36494428079800        0.41530869551501
H            4.47156347404318        1.06472572297968        0.81269451955495
H            3.11373521795207        1.98978704280196        1.09629770398072
