29
 energy: -50.382305846157 gnorm: 0.000525169207 xtb: 6.6.1 (8d0f1dd)
N            4.00644345033982        2.22298463021541       -0.10366211535164
C            3.29168123365230        1.32094505943074       -0.05100752051060
C            2.48111908374888        0.19260195196537        0.00009644391987
C            2.93745763215943       -1.13671267525781       -0.25187888028004
N            4.20150536180089       -1.44426417017010       -0.57140935560422
H            4.88938810453156       -0.71438811087895       -0.64680796714306
H            4.46900623386166       -2.39571398229672       -0.74941110343233
C            1.86680153127098       -2.02971042093114       -0.11608168788437
C            0.72039831076443       -1.32331630012131        0.22360175761342
N           -0.43737795258004       -1.88218077303700        0.43825904440682
C           -1.69137939151315       -1.52319739953084        0.38204966386246
N           -2.56055212754522       -2.38871516292839        0.95904983965814
H           -2.21408630283219       -3.26687519108448        1.30546916106283
H           -3.54516765985462       -2.27086827364583        0.79984133945789
C           -2.26280242265914       -0.42422267697333       -0.33360536576428
C           -3.46060476367613       -0.48876461281465       -1.05373130663151
C           -3.79905602808241        0.79312136696160       -1.47809973103135
C           -2.87301292751923        1.68791195459578       -0.95750782898512
C           -1.88648253124071        0.96708572452867       -0.27027583554600
C           -0.85090048455488        1.55588156481256        0.51389721947459
N            0.40346276583632        1.19156473587368        0.57443208332648
C            1.11238247181543        0.14216095451966        0.29868233145455
N           -1.14282804617560        2.70443581575939        1.17045242517262
H           -2.02662836609064        3.14991242840702        0.99900373854787
H           -0.38306186557935        3.24564902746475        1.54825270021822
H           -2.87106144570895        2.75244918095690       -1.11453958975237
H           -4.65449065889713        1.05043379164876       -2.07624404134495
H           -3.99456019216069       -1.39103650722760       -1.29691605194354
H            1.91990080218837       -3.09251681164187       -0.25287636437050
