30
 energy: -54.901917309739 gnorm: 0.000805395571 xtb: 6.6.1 (8d0f1dd)
N           -2.78464946376661       -3.62617897054381        0.47720552719718
C           -2.15822171540769       -2.67303317849482        0.34223249420781
C           -1.38037132531772       -1.49571147819739        0.20898258444339
C           -2.15593658788219       -0.33652542710061       -0.00621345778698
C           -1.72448937236458        1.10469890632996       -0.14223901199508
N           -0.67297200052028        1.67942482762046        0.31870252281600
C            0.54046627439405        1.43488651594217        0.72614548048424
N            1.03695699566457        2.33723336069977        1.60466587959754
H            1.92715571385815        2.17301380386125        2.04047381536910
H            0.40846344185363        3.02037988348682        1.99244780005175
C            1.42647496193900        0.44799660001385        0.21481699296126
C            1.13448315841743       -0.96639698763271       -0.01238255675593
C            2.37312693052291       -1.58923900515106       -0.27852482380917
C            3.38071465479999       -0.63499436473663       -0.27838609021320
C            4.73865902235974       -0.82384079438439       -0.53939003628562
N            5.86224923311705       -0.92790233424578       -0.76236376327802
C            2.80300319254054        0.62476298596846        0.06347696325639
N            3.52773805100151        1.78280774203964        0.23254037927312
H            4.45170843962950        1.75870324075256       -0.17487269323616
H            3.02986854684482        2.64442705439932        0.06523730837689
H            2.50711680036616       -2.63584598331220       -0.47961781136243
C           -0.01082869240126       -1.74153703192728        0.12972208890591
H            0.21326263967875       -2.80601161326649        0.12233995856544
N           -2.71899609127194        1.83639745675908       -0.66214001179574
C           -3.77427551370874        1.01813162993534       -0.76598880023728
N           -4.94403834484651        1.45724718858867       -1.23346242286894
H           -5.74396985751071        0.85157202920984       -1.27090019658045
H           -5.01843516926668        2.41576178475248       -1.52663296499979
C           -3.48846187842940       -0.31502680252665       -0.34617192025226
H           -4.17427664519146       -1.13888864873876       -0.37169291825045
