31
 energy: -55.399521287632 gnorm: 0.000720654660 xtb: 6.6.1 (8d0f1dd)
N           -4.66222312392902       -3.09195839933564        0.06026928198334
C           -4.12228889879961       -2.08954066287512       -0.10141158644888
C           -3.45951690463715       -0.87338743705394       -0.27398201678391
C           -3.94319509693010        0.24891811558676       -0.91314968213679
C           -2.95645533002618        1.25623850981122       -0.86811637380386
C           -1.81563504387306        0.77627354502153       -0.25571441820351
C           -2.09594703091686       -0.62172230221807        0.13694362544956
C           -1.39203710967122       -1.59589088364941        0.78549457044225
C           -0.02162010400312       -1.80061614636590        1.03070940816613
C            1.11148256065101       -1.11909051836289        0.66930109259878
C            2.35415074337539       -1.83975843402221        0.64281395438539
C            3.31459000662557       -1.04321301667212        0.08286867116838
C            4.63845103010362       -1.36820336740177       -0.23097628859402
N            5.72928511277303       -1.58662532797227       -0.51666041794849
C            2.73817608767016        0.26222244177329       -0.16480292341232
N            3.48132114313993        1.29659440183371       -0.66888245218609
H            4.35610838281596        1.03394500727183       -1.09757959357159
H            2.98351755849747        2.03851847591545       -1.13566414756974
C            1.39865567764293        0.23587678341646        0.20262110580815
C            0.62162765072805        1.43883600131991        0.33594572152611
N            1.36308959171737        2.54340813253786        0.62922073710085
H            0.89541374348218        3.42047733348979        0.79287598896934
H            2.29646017550487        2.42909481861922        0.98353947016131
C           -0.73933596452908        1.64250912908324        0.09811543736739
C           -1.14699279318322        2.99543094541856        0.15888257675975
N           -1.45085050587745        4.10221200028773        0.23881314739775
H            2.46811462354398       -2.86853050850362        0.92721103234417
H            0.18532916663564       -2.77444293780773        1.46270602805862
H           -2.00140907387950       -2.45313320019516        1.05919238824188
H           -3.08082037564503        2.24786138056553       -1.26221206060261
H           -4.91169581940610        0.34493439638264       -1.36942786066645
