28
 energy: -50.661352782708 gnorm: 0.000948742485 xtb: 6.6.1 (8d0f1dd)
N            1.66718808046532        3.66197705147602       -0.66255715144737
C            1.23639360600539        2.61399811320044       -0.47994154166747
C            0.63544218229253        1.34547771534063       -0.27934710202678
C            1.54871361853332        0.30657295415487       -0.12500980480197
N            2.84780365322127        0.54113119855074        0.04340893122875
C            3.35967918432460       -0.63696673994753        0.46295581091222
N            2.50149485912335       -1.66785589449123        0.55075003074683
C            1.34038899974856       -1.17477200857292        0.11812737967141
N            0.34874175512603       -1.93527952381346       -0.19403774616524
C           -0.91646863690257       -1.84602683117768       -0.50061239699795
N           -1.37047255649592       -2.84030736552448       -1.29729658294170
H           -0.73348350594619       -3.56581894138494       -1.57753448215781
H           -2.34716167343437       -2.91217189664956       -1.51614895283823
C           -1.87928409133750       -0.93445780466586        0.01890695317250
C           -3.20062041329897       -1.26744305338920        0.26817414681836
C           -3.92145665498849       -0.12490156587774        0.64949644341467
C           -3.07981243587954        0.96647122570948        0.58231382161808
N           -3.44336224893240        2.26717796987882        0.80860224126927
H           -2.72342660989116        2.92606143603653        1.05342842503497
H           -4.31778499957770        2.40020189569369        1.28926554372727
C           -1.75674840614393        0.51437277297117        0.19994838751157
C           -0.75639202614103        1.41472430844565       -0.06411969916240
H           -1.09122227565683        2.44992546952480       -0.05095654644830
H           -4.95950538553944       -0.10357701544418        0.92513142116467
H           -3.61140889910943       -2.26144369513380        0.23849725344254
N            4.64662512351260       -0.75603915186476        0.77839616449214
H            5.24947841678863        0.03913488258517        0.66786372471109
H            4.99059083893483       -1.63449694502847        1.12064953841922
