27
 energy: -46.134591293116 gnorm: 0.000339289968 xtb: 6.6.1 (8d0f1dd)
N           -5.16922972032559       -0.00161240497335        0.00139355388725
C           -3.83411115698927       -0.00125514294556        0.00109428119378
N           -3.12255130641436       -1.13913382324407       -0.07759878315184
C           -1.83888533859524       -0.75101490648209       -0.04790051034679
C           -1.83926301182722        0.74958116899882        0.04897374488325
N           -3.12311955772984        1.13700699067924        0.07941111963718
C           -0.86462025206474        1.72607924048003        0.09231424889172
C            0.52853310643536        1.71432905130214        0.05508049620917
C            1.49872304994802        0.74435519401588        0.00240268306328
C            1.49912733637680       -0.74397624654054       -0.00349718296443
C            2.88633796504463       -1.07562957929259        0.01614633153587
N            3.68162495967707        0.00078603577285       -0.00132989996148
C            2.88573584210713        1.07676705085451       -0.01823043189554
N            3.44438114657603        2.31731047525260        0.01655867116036
H            2.91204497240468        3.09183347768598       -0.34214753330879
H            4.43299262352584        2.33336901643157       -0.17403914738665
N            3.44563600379935       -2.31586618990197       -0.01905244596059
H            4.43439386007508       -2.33138793560222        0.17082609176919
H            2.91398104838727       -3.09068636361241        0.34002195088908
C            0.52943072152953       -1.71447963221954       -0.05546678558898
C           -0.86374139874857       -1.72698751049661       -0.09178180039993
H           -1.30293170403344       -2.71626619362968       -0.15370517044216
H            0.94252857852172       -2.71931888054435       -0.08772647641424
H            0.94110815674702        2.71939035171239        0.08710570753052
H           -1.30430788568130        2.71511647050835        0.15455969715656
H           -5.66043816336265        0.87092698061798        0.06382244765782
H           -5.65999884038323       -0.87443296652744       -0.06047039234352
