30
 energy: -54.090465895409 gnorm: 0.000899674971 xtb: 6.6.1 (8d0f1dd)
N           -2.10844402703132       -3.36506156108175        0.95270269271959
C           -1.55131942413715       -2.40480805495077        0.64272758039378
C           -0.86694757716245       -1.21828338186167        0.31273159800406
C           -1.75632903702425       -0.14516138366753        0.07302137081665
C           -1.50233966533260        1.34271181187594       -0.04410112233319
N           -0.54136299818161        2.05142124610724        0.42210038758201
C            0.70790295577656        1.88528646660665        0.78196692625469
C            1.63244393525521        0.98174608550779        0.31355264594046
C            3.03217570296415        1.28633199237953        0.18074891586695
N            3.70239420207631        0.30784900635493       -0.41186814842999
C            2.82096568730191       -0.69844546301916       -0.61143172222003
N            3.28987236463489       -1.86840312493383       -1.16658160215017
H            2.65928800898429       -2.33118622454980       -1.80564025067148
H            4.22640848233858       -1.75632277467429       -1.52928545694166
C            1.51042835153364       -0.38599591289937       -0.19498455598466
C            0.52323669214668       -1.36478746687529        0.07885280172431
N            0.96377585237331       -2.65613323247228        0.06352958727998
H            1.95124709051385       -2.82795547942617        0.15544735091149
H            0.32775323978362       -3.37945836695119        0.35961050390744
N            3.64954744916964        2.43344999730531        0.54824238668225
H            4.57274492213987        2.57771023619584        0.17611174181188
H            3.09489474359610        3.24678116081767        0.74433744251600
H            1.07100948633375        2.70364041876981        1.40168695261784
N           -2.59420789200228        1.95563104571641       -0.54440481781298
C           -3.54264175867619        1.02360391644004       -0.62185495751124
N           -4.76750586852186        1.31330016837467       -1.07122283432267
H           -5.50264729874149        0.63060100177257       -1.03452402598745
H           -4.97102035342007        2.26240311562047       -1.33090626427943
C           -3.09072986883272       -0.27206977362582       -0.21887431428912
H           -3.67979910205882       -1.16822573855480       -0.23894182689598
