33
 energy: -58.058753148082 gnorm: 0.000666305061 xtb: 6.6.1 (8d0f1dd)
N           -4.21283405609763       -2.43571322465911        1.35924751890642
C           -3.73463989621345       -1.47093845618446        0.94817017861078
C           -3.21602649378957       -0.27672866886566        0.46493557688204
C           -3.96513872955183        0.94086608703225        0.35096840056290
N           -5.24142681470059        1.07091594611789        0.75081185825161
H           -5.74681926121543        1.92201773263210        0.58354578930270
H           -5.72405161242206        0.28018071373206        1.14112519318670
C           -3.15289394256696        1.92169438877962       -0.21229923369266
C           -1.86519089498061        1.40208752990718       -0.41156816381325
C           -1.94132395631951       -0.05488113139696       -0.07090766117257
N           -1.12584794588962       -1.01548893509496       -0.38099685147712
C            0.11434054720774       -1.23160690774091       -0.69454230443152
N            0.32330023764134       -2.39414277662908       -1.37232859705188
H            1.21246600749096       -2.55744875415011       -1.81107440059446
H           -0.48865959172828       -2.87290010035208       -1.72537356660935
C            1.27031488779423       -0.51331670759672       -0.26729889543731
C            2.50589559802378       -1.10169195103737       -0.02189347007795
C            3.47286539650803       -0.06960304685356        0.19890368158364
C            4.80723694197471       -0.27720745215674        0.53239907443201
N            5.90471430848211       -0.45539647510603        0.83341603557687
C            2.84446537744186        1.16218297194346        0.03340452533801
N            3.47646378484260        2.36871622945799        0.11126843327385
H            2.92647628414428        3.18659129358299        0.31195716178000
H            4.40255369302168        2.35985842227559        0.50804872057779
C            1.44767134580063        0.93935431435243       -0.24461653735189
C            0.61713072979880        1.99955733361572       -0.54325510518813
C           -0.76299780730347        2.19269801650112       -0.66606311820224
H           -1.03112324305569        3.22717433673459       -0.86203459602205
H            1.15939524280055        2.93466190919059       -0.65226075235166
N            2.81772601008834       -2.43925228226983        0.00450873824514
H            2.06026147964920       -3.06671737772900        0.22893930540779
H            3.68936825396025       -2.65992426714967        0.46399348305051
H           -3.44364247803839        2.94057726061373       -0.38932686879646
