34
 energy: -56.966865516795 gnorm: 0.000798116087 xtb: 6.6.1 (8d0f1dd)
N           -4.43836397330532       -2.30779857544468       -0.19629820460439
C           -3.79523029886052       -1.35100043503076       -0.13587400968789
C           -3.04811384104771       -0.18571959221510       -0.06533572655632
C           -3.57898301908663        1.12158826359214       -0.20296849888609
C           -2.53359424501907        2.03581943379564       -0.04976026196391
C           -1.32531017533762        1.35753585408763        0.13852959293896
C           -0.15684341503536        2.05088722546610        0.39543762776021
C            1.21345159665126        1.75869042629296        0.42187969575863
N            1.99789623933465        2.83687770858745        0.72723051310992
H            1.56073218598065        3.66022573911719        1.10270324295287
H            2.97106978340841        2.67975538821232        0.93172197488603
C            1.91769224528690        0.59197157692586        0.05248884670597
C            1.59222409885846       -0.83673861094743        0.11109782346779
C            2.80970100495401       -1.47607012431264       -0.24087002149474
N            3.77849521149458       -0.61039190354270       -0.53472638974433
C            3.27643001835826        0.61442838122574       -0.32579734195569
N            4.10709559358460        1.71674349911385       -0.52505612859664
H            4.98000933155187        1.40595988653252       -0.93433070234215
H            3.68187596464819        2.45009400168689       -1.07912314894645
N            3.06908083691376       -2.84138816964801       -0.34635275708843
H            3.98540265187118       -2.97480677000938       -0.75759977050672
H            2.36003735180309       -3.35025065006435       -0.86086203900303
C            0.45343911306311       -1.55650103938120        0.50225438445897
N            0.66598853750029       -2.84527407122933        0.88877951995665
H            1.60244458125172       -3.14209805664149        1.10792066486212
H           -0.10960550295487       -3.39347630101165        1.21695125795911
C           -0.91631796228863       -1.22023125857680        0.41319883128470
C           -1.64609317511678       -0.09337771248278        0.13862047036925
H           -1.55166821861369       -2.09653685892473        0.53334599725025
H           -0.34690988519730        3.11161180400382        0.54851991762934
H           -2.64101635066510        3.10454635181125       -0.08929298394235
N           -4.88141732578735        1.40465369550485       -0.40577837621750
H           -5.52541003062112        0.65426234710117       -0.58616188433781
H           -5.16995825588660        2.34733612951222       -0.59533821867330
