29
 energy: -50.372359700410 gnorm: 0.000715267435 xtb: 6.6.1 (8d0f1dd)
N            1.95363999714133        3.58068255832711       -0.07384648712423
C            1.49100194293879        2.52918748446605       -0.05619448798752
C            0.83211189620145        1.27499053942395       -0.03102173806858
C            1.71513289881172        0.19125434926039       -0.01154024138885
N            3.02231086150049        0.43144732847891       -0.01814751343974
C            3.60470638962941       -0.79202196074210        0.01454325753141
N            2.76941089812395       -1.83276586009489        0.04080706281461
C            1.53313855281762       -1.29336198743763        0.02521881801622
C            0.45160181119226       -2.14200998924095        0.03815979644209
C           -0.93663177102610       -1.97359923150177        0.02300697926909
C           -1.81491738691511       -0.92105538491275        0.00344340276658
C           -3.22679012562147       -1.15642035405107       -0.00787418290349
C           -3.90003532563700        0.05906790677338        0.01159169715709
C           -2.97144693970679        1.10151169243897        0.02277185218030
N           -3.32104578962571        2.41747072209983       -0.01810485453634
H           -4.27562686775439        2.64005292853367        0.20726302661949
H           -2.64012311132955        3.11314856474790        0.23470155504432
C           -1.65128772142193        0.56209813762610        0.00430598001995
C           -0.56530454527764        1.39947857736929       -0.01854610658653
H           -0.84441790310879        2.45112165035137       -0.03760570936632
H           -4.96850104411304        0.17998969770907        0.01591907303356
N           -3.85227143330738       -2.37048412700163        0.03567965556441
H           -4.83277049327860       -2.37097857455961       -0.19191418468651
H           -3.34363675031347       -3.18163615307578       -0.27375600381455
H           -1.43987138968898       -2.93646645149236        0.04076653914493
H            0.77156605189374       -3.17798653183644        0.06113673264963
N            4.93171886431115       -0.92273501928206        0.02181617470385
H            5.33901847464106       -1.83935036626095        0.04127055831015
H            5.49967909522511       -0.09561936241595       -0.00540750426437
