27
 energy: -47.711784179351 gnorm: 0.000196377970 xtb: 6.6.1 (8d0f1dd)
N           -5.76648420453988       -0.20682678262069       -0.60175260941830
C           -4.65266020351486       -0.08247422109947       -0.35018592098293
C           -3.29370374036275        0.05795482105595       -0.04604749346693
C           -2.68864537371253        1.16807283022837        0.54726453737094
C           -1.31151509517557        0.93474652780123        0.61801735100627
C           -0.41081806547506        1.89370296910446        1.10434835616478
N            0.75296974536055        2.17311627226350        0.62944200141875
C            1.71922508382759        1.64232174740851       -0.03990669161780
C            2.71345664165563        2.39411607702372       -0.68706922002011
C            3.76713369564515        1.55024293277007       -0.99088674574249
C            3.47059825349207        0.23598725853649       -0.59205436660132
C            2.18328826895043        0.20041908982450       -0.07840491657043
C            1.46101847135490       -0.97360916796836        0.17465270265950
C            2.29486781915866       -2.12180824765494        0.17577004916154
N            2.95987075307072       -3.05790743905483        0.21614620521917
C            0.07365540160768       -1.26778855178848        0.26895732083958
N           -0.22809913931483       -2.57659760098300        0.44301423005544
H           -1.18790049176970       -2.86305976793435        0.51188833032851
H            0.49333010576842       -3.27862939378797        0.44783885847916
C           -1.06232388251430       -0.41668168367147        0.11949769340759
C           -2.30784748802633       -0.92358396770136       -0.25878592486236
H           -2.50646722163865       -1.87851230558893       -0.71209290670025
H            4.12002072190121       -0.60968774167077       -0.71709126369732
H            4.68579080079779        1.84964603251951       -1.46339234127837
H            2.66533082712275        3.45258837244070       -0.85005241140357
H           -0.78906365207110        2.62137398799820        1.81860704378618
H           -3.18245843079818        2.07649901114907        0.83605045246457
