26
 energy: -47.988004857363 gnorm: 0.000785813701 xtb: 6.6.1 (8d0f1dd)
N           -4.53696980120945       -1.46933891816488       -0.23519692141102
C           -3.67890162148518       -0.71210997390471       -0.13292204560353
C           -2.74720516307634        0.32452234269313       -0.03748413530569
C           -3.15968661363274        1.70689056925515       -0.01030759418959
N           -2.15792198549880        2.52048314691304        0.05179283028564
C           -0.99606572796114        1.76096594525686        0.05436414052184
C            0.14594402241451        2.50011716000675        0.07128841380749
C            1.53324009560590        2.21453904547644        0.03210874803817
C            2.25090555522374        1.06280093695570       -0.00847429179594
C            1.95105889960670       -0.37991460791291       -0.00234553682971
C            0.78059752602230       -1.12845471330499        0.04356053562505
C           -0.58144127331897       -0.86428679903342        0.05358640248280
C           -1.31771135058029       -2.07640135601196        0.12115724727903
N           -1.79909468973594       -3.11513049452042        0.20176674171081
C           -1.35857907553054        0.32238599948950        0.01399298107960
H            0.97686486779423       -2.19789826343167        0.07287550410440
C            3.22115575764311       -0.99043737042187       -0.03828428849293
N            4.24093270544307       -0.07085303589102       -0.06921291776092
C            3.69416796935626        1.10680429059848       -0.05115777763286
H            4.29203138775948        1.99964500686592       -0.06755008608977
N            3.54711442560104       -2.29217647138003       -0.05318248677831
H            2.85653947731150       -3.01911028364138       -0.02229322826667
H            4.52222065693217       -2.53026975572256       -0.07455775575442
H            2.14644575020044        3.11046055069384        0.02871329236243
H           -0.07901791643443        3.56117232282070        0.10221146429325
H           -4.17750290625055        2.05373384781570       -0.03664938647847
