26
 energy: -47.199320517793 gnorm: 0.000508417591 xtb: 6.6.1 (8d0f1dd)
N            3.97634858836254        2.44606791566816       -0.19025920405054
C            3.48730339196306        1.40516960243244       -0.17345330072293
C            2.88234166659441        0.14884031368816       -0.15655577512606
C            3.48358086077533       -1.08260372328545       -0.46926836595508
C            2.56966845815223       -2.11496322123755       -0.33143703370681
C            1.35553006032140       -1.60851456714317        0.14954675007307
N            0.28410769090379       -2.30766767865594        0.29456584886222
C           -1.00280908836687       -2.18947780726799        0.38015215755041
C           -1.83472221552557       -1.14746162942653       -0.03720445498369
C           -3.19466482895691       -1.32032975804276       -0.37223274003165
N           -3.81011655248788       -0.17598116202564       -0.62065808497588
C           -2.90869258153415        0.80761088723487       -0.40709970836746
N           -3.28992334990465        2.11994567928798       -0.51997907723746
H           -2.57373548669558        2.76942800029602       -0.80914229479402
H           -4.17155098626493        2.22932457393663       -0.99978795248838
C           -1.64397447589333        0.30004605868270       -0.05072965219468
C           -0.60152834332417        1.05472790029410        0.54659799601862
N            0.68474948455532        0.83252853975053        0.45287081261058
C            1.54860855995006       -0.09065228054811        0.25045041852674
N           -0.92366454754051        2.23139000105323        1.13978142778216
H           -1.88465557968111        2.42814673315656        1.36054942954627
H           -0.19140399054427        2.74824841499638        1.59662083636678
H           -3.71462336532287       -2.25516049577196       -0.47110410244862
H           -1.50129856598815       -3.10560774552145        0.68951400583729
H            2.75497937137729       -3.15490242705958       -0.51934401768070
H            4.50867022287493       -1.19246798849096       -0.77684526821007
