27
 energy: -50.938839240426 gnorm: 0.000662234327 xtb: 6.6.1 (8d0f1dd)
N           -4.17145740924834       -2.45293421465244       -0.43995616824643
C           -3.51439945833057       -1.52382152963669       -0.26208040237878
C           -2.78030101644402       -0.36063667690359       -0.07555002185639
C           -3.28941240567945        0.96705886258516       -0.26145420053340
N           -2.35816306351506        1.90130311766324       -0.09655553571353
C           -1.21849545211884        1.29722089200597        0.27341284684069
N           -0.11480006200311        1.93821527735242        0.30452867729774
C            1.17963539443190        1.73338163139069        0.33517373066185
C            1.93919747349478        0.64549912296905       -0.04886741844914
C            1.69309090005535       -0.78901710173844        0.03861193878328
C            2.97254376198644       -1.37481143708138       -0.16816402960780
N            3.93739138129798       -0.46386742719602       -0.40692610091631
C            3.35238650908475        0.73043099189724       -0.31607252519368
N            4.05827263543623        1.85651254860546       -0.49538012098806
H            3.60381925924179        2.75004065952389       -0.53229734315895
H            5.02593950694624        1.77526014115323       -0.75073498061488
N            3.27531110705073       -2.68336781822686       -0.14992601435971
H            2.54991741910958       -3.37628660433755       -0.12147409330824
H            4.20728530228850       -2.95222336943053       -0.41044259082123
C            0.61570858306051       -1.47564610721652        0.59654541348453
N           -0.64641286849516       -1.18862424040772        0.59637695439339
C           -1.46044642215321       -0.21784992961833        0.37115024038923
H            0.82970122799470       -2.44856700355243        1.03550078661817
H            1.72450281349098        2.63838428243928        0.60091030475811
N           -4.54952253478452        1.26686231237240       -0.58678882899560
H           -5.22296679908571        0.53540372156333       -0.73173444175175
H           -4.81339281151325        2.23187187887754       -0.67739727333364
