22
 energy: -39.525130265749 gnorm: 0.000751914832 xtb: 6.6.1 (8d0f1dd)
N            4.50544750906537        0.02338404908120       -0.42041497999803
C            3.20551778970056        0.00896249552400       -0.14541312965312
N            2.42401289126904        1.08903368518497       -0.35633848223005
C            1.22157919502276        0.72380775617306        0.07523753609710
N            0.27697302693901        1.57267543908609        0.30735314433464
C           -0.99346718534926        1.63759106030484        0.47117992857779
C           -1.98878691402869        0.75652973530749        0.01757066971392
C           -3.31127846094563        1.10810135157830       -0.24245179463189
N           -4.08083651832671        0.04193622147631       -0.52922348492608
C           -3.30947679727383       -1.02278731533475       -0.42208932974351
C           -1.95985604192407       -0.70207421241044       -0.10368657707596
C           -1.04086294425761       -1.69392727664060        0.20458458895673
C            0.31808523228522       -1.72358675830453        0.48964835592843
C            1.30380944923354       -0.75214478210357        0.42415332921999
N            2.58990026571386       -1.08838691025200        0.34049425086336
H            0.73738074318093       -2.71409616054657        0.62790923482395
H           -1.48539464464342       -2.68500518285320        0.16868498567329
H           -3.70634518692899       -2.01000016695756       -0.57698690325164
H           -3.72489142060504        2.09980574280756       -0.26409428833557
H           -1.33231630684058        2.55253899242650        0.95412499742924
H            5.06434080852187       -0.78384316068646       -0.20936589626154
H            4.91362400029070        0.85484387413922       -0.80937288241127
