28
 energy: -50.644816503980 gnorm: 0.000608504378 xtb: 6.6.1 (8d0f1dd)
N           -1.47168043540438       -3.47065607550226       -0.33106128150097
C           -1.07596136329259       -2.39299968759689       -0.27733117532428
C           -0.52365049945717       -1.08554389430391       -0.26126522771332
C           -1.52149081716007       -0.12719747244741       -0.18995040532735
C           -1.48727937113887        1.38323356506668       -0.18148527406069
N           -0.61130988622255        2.22064259881461       -0.68302301802866
C            0.65423027569082        2.22763770818440       -0.90695298229161
C            1.68972971509268        1.44042749788481       -0.37613795356493
C            2.98918169998546        1.92933790252105       -0.24016200942946
N            3.82612455414167        1.03710374229120        0.30172706028898
C            3.12850756882118       -0.08435735847708        0.46388858044976
N            3.75481017757185       -1.20948655746590        0.97713400707402
H            3.23553630046572       -1.68967714649836        1.70162739795177
H            4.69400439081299       -0.97650418715360        1.27615210881984
C            1.76016741232251        0.04898490318706        0.06060000640056
C            0.91129821868756       -1.04797894551788       -0.13984893650894
N            1.49645670222564       -2.26771070161328       -0.12290824313535
H            2.50281518950860       -2.32549738640112       -0.15900808090204
H            0.94481156949072       -3.09164403216724       -0.29712153874434
H            3.32823504746739        2.92292634885479       -0.46889790251888
H            0.97965482242206        3.07385759024887       -1.51037451306389
C           -2.73241143092056        1.74491129604281        0.29010976297014
C           -3.48491028327740        0.54618276100429        0.39416461046295
N           -2.76949574229172       -0.54159946854070        0.07396640336889
N           -4.76542139174561        0.43557564341249        0.75756877913587
H           -5.19210716819240       -0.47433503736951        0.73960609914852
H           -5.29408760175458        1.23850117797412        1.04569945003197
H           -3.09403323114803        2.73917116177163        0.45584853471311
