33
 energy: -58.848610732523 gnorm: 0.000353117164 xtb: 6.6.1 (8d0f1dd)
N           -2.61465208857608       -4.21428647646822       -0.12522455316224
C           -2.33532204276807       -3.09764825471814       -0.09623282412093
C           -2.03767422554370       -1.73810979295896       -0.05900578216359
C           -2.95940199508851       -0.73433179582352        0.28743037925686
C           -2.28220132146108        0.51931573979408        0.21818363346117
C           -2.92643258957147        1.70435282694650        0.57627583885902
N           -3.54041135690286        2.60088790444849        0.95488081945929
C           -0.94172664516879        0.30933248239743       -0.14782803760147
C           -0.75758770821550       -1.15117354851429       -0.26337576219885
C            0.33243483893258       -1.95647492170887       -0.51470016643379
C            1.70896589134132       -1.77018959816887       -0.37994363430541
C            2.51128737275341       -0.69995177882071       -0.06894973104143
C            2.33382460797400        0.75889694948065       -0.15764859027632
C            3.55957921123392        1.32070810330421        0.19597608128278
C            4.47634583535649        0.32101774441345        0.53848918743812
C            3.87725706675482       -0.90920976981496        0.34326021634291
N            4.49123605437863       -2.12318828851749        0.50749197493503
H            3.91218825415998       -2.92701089272219        0.68495576365770
H            5.35370165362585       -2.10641404738999        1.02709466463150
H            5.47813660342373        0.48564373101940        0.88963103375732
H            3.77133457701743        2.37137721216788        0.28838021407626
C            1.28182068409090        1.55680535407385       -0.66857736287531
N            1.67250792996836        2.72998485822127       -1.22030579326696
H            2.65013615259701        2.93895813754624       -1.30609571748274
H            0.99570837309459        3.42781979858746       -1.48157929809322
C           -0.12432428421083        1.37129404316939       -0.57185341742955
C           -0.86931447562589        2.50743100213200       -0.96990202295989
N           -1.42600054231624        3.42332047307379       -1.38795383229760
H            2.25194191213311       -2.70786032390125       -0.45183701222573
H            0.05211617182895       -2.99031478324796       -0.69499595613029
N           -4.24127847801625       -0.90198628689961        0.62938502470908
H           -4.80304460210076       -0.10401465591982        0.87446492632044
H           -4.64580737229731       -1.82237359168184        0.64892167477987
