25
 energy: -42.677354543953 gnorm: 0.000830709049 xtb: 6.6.1 (8d0f1dd)
N           -3.54559959779056       -1.22035470417864        0.48811481720439
C           -2.72233520320556       -0.14113620370634        0.29389591597902
N           -3.25257459249090        1.12162278502622        0.37660220559007
C           -2.28465425197867        1.94919206494343        0.09638974191812
C           -1.02619815582736        1.28799830159297       -0.13575973705495
C           -1.36371482790056       -0.12037201364048       -0.00618603710141
C           -0.56816176566032       -1.26164933675706       -0.33757315220166
N            0.67795527222731       -1.46045627371129       -0.05302023719616
C            1.78618235261118       -0.80288374760799        0.12858416601953
C            2.95180940298770       -1.33383224463284        0.67415592445334
C            3.96470676894738       -0.41220938168968        0.39734335751190
N            3.53609300153922        0.69042226835927       -0.20838328409371
C            2.19784544083218        0.57651199256753       -0.33402326768670
C            1.45985834640548        1.70843156686204       -0.58140290864352
C            0.09570935960172        2.01158641016287       -0.46798343952117
H           -0.11530122940593        3.06847426319430       -0.60334499481228
H            2.09418914275687        2.56600926662693       -0.77776068711595
H            5.01210131945256       -0.52609605558366        0.62058393363404
H            3.06240225570776       -2.29840501823444        1.12737624378813
N           -1.22326342307624       -2.33526471356309       -0.86104684130838
H           -2.13805122942794       -2.20048505714151       -1.25529463315590
H           -0.66084346820330       -3.09712298583675       -1.20228577508209
H           -2.44372316307989        3.01211441934250        0.09760837897834
H           -3.11012149430051       -2.05484104577233        0.85055868459479
H           -4.41800417352196       -0.97234448272159        0.93069306990222
