29
 energy: -50.374788425404 gnorm: 0.000886061896 xtb: 6.6.1 (8d0f1dd)
N            4.20927931431158        2.23948459414549       -0.94490537599252
C            3.51950163126331        1.37162525513235       -0.62711049889249
C            2.72942810102204        0.30094261558977       -0.23296743267807
C            3.21614160637799       -0.83378936781421        0.47192293814217
C            2.14602502572202       -1.70353769959109        0.73042196011389
C            0.98595389988448       -1.17711809850628        0.17601864996631
N           -0.09221993973465       -1.89229558690210       -0.00402757909390
C           -1.35131659951458       -1.72634608472150       -0.26987699818639
N           -1.96825077956807       -2.79234384800206       -0.82919717483875
H           -1.43966728244395       -3.62923059749422       -1.00235973806080
H           -2.96179545127284       -2.78630133764242       -0.97039105693340
C           -2.18595107880556       -0.61469759643674        0.07034612704235
C           -3.52067247148110       -0.69436211144730        0.41611384890585
N           -4.10934431970484        0.51889782973791        0.55761653355785
C           -3.19228478214974        1.41445483772642        0.24452037610529
N           -3.47829110206381        2.74289516132240        0.22762686658548
H           -2.72448374474723        3.40124926852276        0.32340934226657
H           -4.35121084857484        2.99449439186750        0.66127814251650
C           -1.90747583286127        0.80620946478770       -0.06902272484271
C           -0.83157809077032        1.53791149069079       -0.50971182955504
C            0.53068572192716        1.26190912942965       -0.68512396329269
C            1.32406599470460        0.18635660848440       -0.35291653700412
H            1.10754762839649        2.12525431296359       -1.00630401206923
H           -1.06805211373791        2.58021138134989       -0.70520325154966
H           -4.09318155374479       -1.57966846360504        0.63137870970087
H            2.22097854783479       -2.65775956416497        1.21485746098696
N            4.49928695231018       -1.01829608230499        0.81889496210588
H            4.77581015243991       -1.82513824400915        1.34844392696496
H            5.19339533798269       -0.34260064830576        0.55020759002815
