25
 energy: -42.681321030301 gnorm: 0.000352615281 xtb: 6.6.1 (8d0f1dd)
N           -4.66021828498101        0.15825757438816       -0.52534680069933
C           -3.36306085831479        0.00916817145095       -0.22595697520137
N           -2.60078737801745        1.06039460894151        0.08440231785877
C           -1.34584866112189        0.59323299952095        0.26514616872568
C           -1.36705113336791       -0.91261388384404        0.20775412474974
N           -0.48872559168457       -1.80793587096689        0.61341168100373
C            0.78653611709839       -1.86701115736755        0.73535942749054
C            1.81896640958238       -1.06923455481337        0.19560547559594
C            3.07880394741499       -1.58698046825023       -0.10684161751128
N            3.91448709313127       -0.65606237017786       -0.58921826949264
C            3.26156899944538        0.49430485505460       -0.53808060461205
C            1.92756391634837        0.35355660806460       -0.07888381948629
C            1.08232063125737        1.44663195780370        0.19135157601762
N            1.68157924699600        2.65821364326945        0.27266037555431
H            2.67464729795798        2.73963743191555        0.15094120121745
H            1.12991542224961        3.49443168815242        0.35143568155404
C           -0.32709627729553        1.50513411694730        0.31498685584703
H           -0.71354830607042        2.52085821138252        0.32449604646198
H            3.74443373895141        1.38644075775048       -0.89997673756053
H            3.38691746115319       -2.61417153763384       -0.03419243920183
H            1.12531048196060       -2.76746157371852        1.24804717649525
C           -2.64920695069564       -1.22049993420080       -0.18928740631636
H           -3.05468211935391       -2.19590716661857       -0.36747527637503
H           -5.22756412224980       -0.63275043333104       -0.76783221798315
H           -5.07076681879410        1.07224036977968       -0.45692919393281
