28
 energy: -51.431436890226 gnorm: 0.000611203536 xtb: 6.6.1 (8d0f1dd)
N           -5.56571274891840       -0.90147545840488       -0.55843649605947
C           -4.45070418756335       -0.70287658320266       -0.36003281479365
C           -3.10551470945030       -0.42522661360731       -0.11131855288490
C           -2.02033761678461       -1.29105208193229       -0.31589670032483
C           -0.82238226649102       -0.64408019830104        0.00035365095275
C           -1.19815993603716        0.70594854476238        0.44965541016891
C           -0.39745804314312        1.75817615584207        0.87949698303924
N            0.74236501285645        2.13047251816697        0.39413072309778
C            1.77371577972604        1.66749111064127       -0.21097358389508
N            2.62899098736635        2.48482913539855       -0.84350171464003
C            3.73447839993628        1.77458793366399       -1.06013295807365
C            3.65669625617803        0.44921597252466       -0.61890789919783
C            2.36276578337027        0.27203301444931       -0.13980249523693
C            1.74850963827111       -0.95066392732866        0.14111246272531
C            2.69462239689810       -2.00125515192504        0.23633587540048
N            3.46529656050179       -2.84724554687162        0.34752486743441
C            0.38453917023077       -1.37396359342152        0.17516888896189
N            0.22547342108179       -2.71012594795693        0.33177525273515
H            1.02398991722554       -3.32277971726842        0.35893690306798
H           -0.69388287227051       -3.10918969245437        0.38206450149470
H            4.42444957023235       -0.29408315290518       -0.70396564848376
H            4.57633454649163        2.23762198238585       -1.54499553799326
H           -0.82597999650962        2.47567182847629        1.57698587603334
C           -2.61378976426861        0.78558378905639        0.41770168440988
N           -3.38442979001114        1.83826445226041        0.79507521441854
H           -2.95736590066647        2.73671450879129        0.93498420023989
H           -4.34743060830385        1.83639333716250        0.50188728361556
H           -2.13333450974665       -2.27966021490121       -0.72388153001324
