29
 energy: -51.162585127422 gnorm: 0.000721506523 xtb: 6.6.1 (8d0f1dd)
N           -2.12943810527933       -3.16376913120665       -0.07318851510572
C           -1.48203387614106       -2.21700731345093       -0.04127387275373
C           -0.57431938945389       -1.12376385397754       -0.00053747228780
C            0.73445680454007       -1.56124968055325       -0.31573884606737
C            1.98072988876305       -0.99478520641649       -0.41115411268115
C            2.55354634945818        0.28620076150769        0.02937350042227
C            1.92100496176345        1.37001156296597        0.63740415825587
N            0.72489852360691        1.83722527289063        0.50845849956107
C           -0.47474345771083        1.48022368844175        0.15191860800143
C           -1.46214159795891        2.41964761797979       -0.13628605125346
C           -2.71079985416704        1.78883547259733       -0.12625256079999
N           -3.90728165828996        2.36132788329206       -0.30705298706172
H           -3.98368001698904        3.34199571185244       -0.50920384844820
H           -4.74115728501502        1.80277443817159       -0.23130123896609
C           -2.52416927953202        0.39055694338561        0.11258340083901
C           -3.62003042887592       -0.46501473949902        0.18912968684377
N           -4.61906714156670       -1.03372838815390        0.26080364775002
C           -1.14365977716038        0.13228564254463        0.18111177228754
H           -1.29069431216835        3.47138006662758       -0.25825469021231
H            2.55541223433134        2.01731809099504        1.24525418707317
C            3.94773501446149        0.18347318031209       -0.12602767613615
C            4.25360302494969       -1.08832081383274       -0.67285031737569
C            3.09020181904232       -1.79375595798456       -0.81929837220235
H            3.00168407859969       -2.79929984791966       -1.18733946668628
H            5.24647262772985       -1.43365855238406       -0.89747605396040
N            4.88132840735425        1.11890059793256        0.20264529192968
H            5.80328003875409        1.00923097771452       -0.18402178445352
H            4.58072485424886        2.06295345227535        0.37224225794061
H            0.74018675625283       -2.61606768787145       -0.58261208174278
