33
 energy: -63.652020230749 gnorm: 0.000737894556 xtb: 6.6.1 (8d0f1dd)
N           -0.72596243675529       -4.27337548488348        1.44851205520846
C           -0.56549749825786       -3.20480764565841        1.06509373756711
C           -0.27654399918486       -1.87966794176655        0.63958604878877
C            1.10235494688625       -1.60665775143217        0.59852206506433
C            1.85988207686285       -0.55326505334152        0.16454817305440
C            1.58813765324672        0.87071407542144       -0.08229959206938
C            0.47171267665254        1.69415261700607        0.25536518222504
N            0.79219859625394        2.96578215141467        0.58271049096692
H            1.75456201686476        3.24282326884594        0.65258352882112
H            0.07192061656065        3.65417475937957        0.73078577202605
C           -0.90945503764988        1.40860050866483        0.19792828424954
C           -1.74223053193057        2.52645040612780        0.44913609951530
N           -2.38436307460390        3.43754951926567        0.73099428147160
C           -1.64716977374062        0.24579630693402       -0.10432527704507
C           -1.39196146813059       -1.19117285611394        0.17619738140077
N           -2.51011716176989       -1.90947126089231       -0.01614955923694
C           -3.45567937576363       -1.08196232227134       -0.45665362670799
N           -4.66943803605983       -1.49761036927754       -0.80293825862382
H           -5.35890834734488       -0.84215909857864       -1.13059137684407
H           -4.88894372244035       -2.47634808973794       -0.72736232822490
C           -2.98381511146706        0.27755031025445       -0.50329661035720
C           -3.77736566490077        1.32119266298810       -0.97497731964679
N           -4.50346146335265        2.09165184729292       -1.42454098995313
C            2.76956456556704        1.43279642436373       -0.53432633640417
C            3.78503715478662        0.45004721243530       -0.60607039788490
C            5.09541058916836        0.64287454077558       -1.04710606417164
N            6.18439762365262        0.77778142129393       -1.39010188684855
C            3.26420374507467       -0.75209212272644       -0.12451811769867
N            3.94565272581712       -1.91805629585753       -0.07429373042335
H            4.93197399515832       -1.89682917902210       -0.26965188038775
H            3.58515258196466       -2.71175985097189        0.42462029173118
H            2.91826424517773        2.44755679523478       -0.85761512271425
H            1.67964387365668       -2.48676642176596        0.87143568155441
