26
 energy: -46.405644949390 gnorm: 0.000896608884 xtb: 6.6.1 (8d0f1dd)
N           -0.09483637019723       -3.00187100221266       -0.93569080804186
C            0.13234427019628       -1.80521544866574       -0.34445213274906
N            1.38481978659870       -1.48153348559379       -0.18829488764621
C            2.14339304093301       -0.46165114338320        0.00248894616063
N            3.36688022418042       -0.56632374241370        0.50365382536436
C            3.84428374385995        0.67866920364746        0.66798390931578
C            2.93651496633395        1.67670785844043        0.36077883849264
C            1.80074775208181        1.03305232608289       -0.15131403507245
N            0.69361325569991        1.60212475064349       -0.47981068273143
C           -0.57743884563289        1.34377656752254       -0.63198149363506
N           -1.28001328273059        2.25305135852306       -1.34729482968272
H           -0.80639967606113        3.03445852293539       -1.76456298536204
H           -2.27611922234412        2.15004885074286       -1.43245519902515
C           -1.31379709864742        0.31784359943155        0.02314887862720
C           -2.65489082081868        0.41191708649963        0.44807662295948
N           -3.14484322283938       -0.77313320333403        0.83086061809342
C           -2.18113240926505       -1.67450113634846        0.61768677270673
C           -1.00282447475021       -1.09391059180364        0.14510467255703
H           -2.34880471283864       -2.70624757591207        0.87072510935667
N           -3.44984036721812        1.54963195368966        0.47434315363697
H           -4.29981986576357        1.37786199708869        0.99553026344259
H           -2.97307067550776        2.38311825383107        0.79264994083196
H            3.09094083880687        2.73600410590212        0.40926850299673
H            4.85515211939375        0.80839002432478        1.01473000131567
H           -1.02062235329096       -3.39079033232645       -0.90465155465021
H            0.69023287662104       -3.60417890271144       -1.11947508236169
