24
 energy: -43.751346560310 gnorm: 0.000593608474 xtb: 6.6.1 (8d0f1dd)
N            4.58119068931607        1.84669299426169       -0.43041087368654
C            3.82103202733713        0.99532773009027       -0.29705099091381
C            2.90446897138022       -0.04742405884863       -0.16053462204294
C            3.14479497259346       -1.41392944807370       -0.30937475586733
N            2.05485399996222       -2.15567324334818       -0.12800809456269
C            1.05383296189174       -1.37387829306530        0.26530728985917
N           -0.15423142177308       -1.79213323828512        0.34819313641647
C           -1.38784224305346       -1.40847395893116        0.41822851223619
C           -2.00815260542417       -0.22346155091929        0.01769313766782
C           -3.40931506125877       -0.13803319700958       -0.21716815492065
C           -3.77519381286845        1.22206973931477       -0.31257509764607
C           -2.65550086774909        1.98711181483367       -0.09034004832125
C           -1.52323470231846        1.15130658211181        0.08708780578547
C           -0.29019333540392        1.66441265042759        0.47145514134012
N            0.90459039145136        1.16535472088778        0.35797553378563
C            1.55988067112137        0.07383179878124        0.29939243406337
H           -0.28042961936131        2.70980101908672        0.77134759146632
H           -2.62032530262585        3.06071427735055       -0.06971230291252
H           -4.77465629369135        1.57963123007237       -0.47567027630083
N           -4.26663424501305       -1.17560217716603       -0.32768041960499
H           -5.20518290848054       -1.00052757309695       -0.64008776091430
H           -3.91907503120683       -2.11586129662075       -0.38977055247977
H           -2.04818775189309       -2.20549754696086        0.75946926956447
H            4.08446958486816       -1.88025105529301       -0.54594158551151
