24
 energy: -43.752479756943 gnorm: 0.000690740846 xtb: 6.6.1 (8d0f1dd)
N            2.97556217865551        3.00060733010698        0.19810146078270
C            2.24370350263581        2.11868948347805        0.18386001080461
C            1.27913475502270        1.07263225213137        0.19157552489950
C            1.83544641414098       -0.19176849820958        0.22309131602274
N            3.15891293002849       -0.38281433085274        0.06486525085131
C            3.27837820533075       -1.62421135167303       -0.36921689852941
N            2.14756971378987       -2.33020787314148       -0.51424561459001
C            1.18506094099071       -1.53283186454483       -0.05160976538040
N           -0.01289825698542       -1.93069500543989        0.19184034117298
C           -1.20157347659789       -1.52452436484617        0.45353128450164
C           -1.85260396094641       -0.34778129650492        0.05976486960600
C           -3.24614854015834       -0.22631514148829       -0.03964586594718
C           -3.57193482718765        1.14001134638805       -0.30095493064971
C           -2.42059892799870        1.86353226136090       -0.32153242445579
C           -1.28987213851168        0.99870663332650       -0.11743786801690
C           -0.04680925494112        1.55330026872848        0.02748545130919
H           -0.06034294009988        2.63765250663465       -0.05620868130356
H           -2.33881844706243        2.92362024241974       -0.47447717043918
H           -4.57259174826603        1.51356293776233       -0.41848979924881
N           -4.16571244765774       -1.20853932190018        0.08606989976824
H           -5.11440881514313       -1.02291755143957       -0.18776962986235
H           -3.87373824636919       -2.16853747994801        0.13309864942052
H           -1.80206649401409       -2.26351566968393        0.98363161404796
H            4.23561601264472       -2.05501782636435       -0.59994013966386
