28
 energy: -51.437745809413 gnorm: 0.000813524913 xtb: 6.6.1 (8d0f1dd)
N           -5.65161900687442       -0.17497821234926       -0.37669527941244
C           -4.53112902351745       -0.29467992792964       -0.15290040709224
C           -3.15758696757244       -0.38568907300935        0.09296956971953
C           -2.44420204959296       -1.48626435504275        0.52340331191177
C           -1.06217752350902       -1.17498049840946        0.53930892624540
C           -0.17761201226789       -2.19344997406248        0.84177169774995
C            1.18551970588878       -2.39178052928899        0.65314827598940
C            2.16722215908276       -1.60788721951100        0.08974314729258
N            3.35905280820407       -2.16156696543964       -0.21586810714257
C            4.09900145711908       -1.16913200756162       -0.68218292363409
N            3.53953595254290        0.04437981477192       -0.65841656155836
C            2.29697069346857       -0.14998823910345       -0.20207131016605
C            1.51695696422578        0.97143403929431        0.08507526857758
C            2.28856124005974        2.16156003891253        0.04571816064691
N            2.85965690172241        3.15837162727756        0.05027531295021
C            0.13406000200950        1.16817866106304        0.33826377827215
N           -0.21413517022178        2.43109214471421        0.66040886919892
H            0.49562117225925        3.14110090254099        0.74883412101615
H           -1.16381373032566        2.64387956754384        0.91575582259992
C           -0.94758058009066        0.25529235882766        0.19510353145285
C           -2.24507429678926        0.70031127055475       -0.08935377136971
N           -2.66298731178972        1.95484428077783       -0.48342873770136
H           -3.61283997564327        1.97610385634410       -0.82925256170851
H           -2.02094945079415        2.48193313648155       -1.05773900133622
H            5.09564394306096       -1.32160385894155       -1.05402650994019
H            1.54536992594335       -3.38511572879281        0.89560143716584
H           -0.68553744596541       -3.08084266057164        1.20719516543814
H           -2.85784069033169       -2.45287651209217        0.73991329123483
