29
 energy: -55.949054193640 gnorm: 0.000971238683 xtb: 6.6.1 (8d0f1dd)
N           -5.03249172107644       -0.63241924607652       -0.14781339901829
C           -4.00217228974608       -0.13837726087623       -0.02922782400760
C           -2.81103229482394        0.56843360907240        0.15456156126404
C           -2.77580457764593        1.90279276829200        0.63572219119998
N           -1.55472280532503        2.36436746505425        0.75769875614725
C           -0.69732655521744        1.38229426537499        0.36066178675915
C           -1.47413524636658        0.15816070230429        0.01639183521882
C           -1.07759334023982       -1.14432942038864       -0.28975744820040
C           -2.09936577947581       -2.04692700041401       -0.68522796658250
N           -2.82981621158084       -2.85409628246627       -1.04727029629609
C            0.15531137242911       -1.81102271083002       -0.16539102187300
C            1.45840614497838       -1.43139379516470        0.02494366734418
C            2.21161370229945       -0.17163319738171       -0.10436475344719
C            3.55903274284071       -0.57861984478465       -0.07107371516146
N            3.71814675034553       -1.88401631210400        0.11887692354849
C            2.49543011657358       -2.42422913159329        0.15750684107155
N            2.34835415019764       -3.75059073708736        0.30437246499075
H            1.45518337468665       -4.17226943942903        0.47943046274454
H            3.18317477931292       -4.29288119020024        0.43898709106422
H            4.43662910270654        0.04272625488178       -0.09313240436790
C            1.84052935049097        1.16796265016577       -0.22320354649418
N            2.75747743280396        2.03270083624225       -0.68943359821832
H            2.58636158282152        3.02562214686026       -0.65632902651758
H            3.66706551852536        1.70684719086368       -0.96491941370201
C            0.60854465008746        1.78978031492630        0.21362688309369
C            0.76566398951038        3.16784226472959        0.53566145145673
N            0.98728414785241        4.26844776315726        0.77429345401674
H            0.02903347763022       -2.88806841172517       -0.24860388405375
H           -3.62759631379494        2.50667075089700        0.89157112802184
