31
 energy: -58.627315254032 gnorm: 0.000803516305 xtb: 6.6.1 (8d0f1dd)
N           -2.31511641544813       -3.16259622696639        0.79870610533224
C           -1.69307411773164       -2.22768966743855        0.55839200323381
C           -0.83385676194359       -1.13264550560504        0.29139678772890
C            0.49100313726432       -1.57004899665061        0.04051205648327
C            1.68596033642588       -0.96019002723008       -0.22639774928596
C            2.20614470744434        0.39341014500660       -0.05886393333523
C            1.52508613570521        1.52253636745055        0.44343686117303
N            0.31441154331860        1.90275618283758        0.13563426735620
C           -0.85633661935717        1.45770225004175       -0.14411927896974
N           -1.79512497756183        2.29757626485945       -0.60224118453664
C           -2.96611706726393        1.66377013510651       -0.49129631495402
N           -4.11893903718621        2.24096033541408       -0.82571731811559
H           -4.11017424313861        3.17298960295141       -1.20119038787645
H           -4.98485117758718        1.74542345932926       -0.69696900445439
C           -2.83321636704760        0.32356871601656        0.00631050874860
C           -3.93739628297433       -0.50409852648136        0.17000908781334
N           -4.93495492388397       -1.07012385912079        0.27550229321353
C           -1.45705619167119        0.10487946959107        0.15609160515509
N            2.22481482040998        2.41921661444686        1.18696404423778
H            3.08726540516672        2.13081443456856        1.61640247275435
H            1.70929304205476        3.18258921669466        1.59358812507908
C            3.58711552854250        0.28230862147957       -0.26508912964633
N            3.96965597638106       -0.97828520519533       -0.58849654125603
C            2.87893479450567       -1.72643734118084       -0.55021885309087
N            2.93929941891820       -3.05047231379784       -0.78777333634493
H            3.81724842272233       -3.41427180318762       -1.11431825419074
H            2.10468063712811       -3.57628191585115       -0.97397095025901
N            4.52887477591108        1.26767909372625       -0.17811284992298
H            5.41231054871287        1.01432482049912       -0.59470657686153
H            4.21701551542927        2.20646973808700       -0.37416070176417
H            0.54304564415543       -2.65626173400236        0.02521746185622
