28
 energy: -51.449613421208 gnorm: 0.000728462879 xtb: 6.6.1 (8d0f1dd)
N           -2.42496041814144       -3.67860507641873        0.66028363590637
C           -1.89231637687735       -2.67286581919330        0.50852688218779
C           -1.22554668894618       -1.43150942230977        0.34752475248713
C           -2.11002611610259       -0.33203699806347        0.28711592369233
C           -1.79976829467201        1.12795213869036        0.04384707666639
N           -0.74531946879923        1.79783222761368        0.33480266358684
C            0.51727446090724        1.67149712461469        0.59756446615515
C            1.42559423373876        0.72051899008704        0.15652657245662
C            1.21897919522432       -0.71588866564490       -0.09842689860641
C            2.48874405607877       -1.25600994177209       -0.35362250343274
C            3.45573509269252       -0.24982862806623       -0.30057639701178
C            4.82897891352757       -0.38345773208850       -0.51564225051642
N            5.96208862926728       -0.44955138081411       -0.69936793733531
C            2.81546983132117        0.96638556517855        0.04659171126937
N            3.45658673959016        2.14505624511500        0.22855883150647
H            4.42202902601862        2.20806649711647       -0.04640315793695
H            2.93068918401586        2.99797197535256        0.29417676562893
H            2.69197001303626       -2.29174700079851       -0.55467266629645
C            0.13920114863671       -1.56965328185431        0.10575773577614
H            0.43480818468242       -2.61476241317455        0.04144353760510
H            0.91792730233379        2.52233812800843        1.14925395681017
N           -2.90239747439137        1.76145064501248       -0.38370271426468
C           -3.90473597829844        0.87899438219061       -0.29922983865119
N           -5.15255425429293        1.22022584620140       -0.62053460909792
H           -5.91261894727908        0.57581720127564       -0.49651725356408
H           -5.33009577651807        2.15957709420166       -0.93195501405417
C           -3.47300254485061       -0.41360457184387        0.12880721400088
H           -4.09729024431267       -1.27980197320765        0.22627324414102
