22
 energy: -40.312536356202 gnorm: 0.000895747001 xtb: 6.6.1 (8d0f1dd)
N            5.60491103426272        0.02926211070798        0.57617689234602
C            4.46946498041745        0.01512086137708        0.40906195239084
C            3.08125836461144       -0.00023174455423        0.21075839859482
C            2.27258590066119        1.14561779480166       -0.01297743602422
C            0.95815254351154        0.74435324133040       -0.15318130165837
C           -0.09028229117162        1.63652388406560       -0.46913998928700
N           -1.32471154280100        1.56316211830402       -0.14525975760217
C           -2.27012903919811        0.73320574801210        0.11376645870448
N           -3.43812272387438        1.08607484702018        0.66135142548270
C           -4.23269264487137        0.03235929857133        0.47163034850156
N           -3.68902705709774       -1.04203155797922       -0.09172086320714
C           -2.40118963192665       -0.72475151388484       -0.28033624615607
C           -1.43460512917057       -1.70001804469268       -0.41239886503371
C           -0.04708763710397       -1.68772015435658       -0.27004746846813
C            0.92716280053794       -0.72545776009017       -0.05266154003610
C            2.27345600354063       -1.12386001497488        0.15145173754722
H            2.60590139404087       -2.14011882737745        0.25544870841924
H            0.37350513528326       -2.68959806949051       -0.27815405160290
H           -1.87044597057200       -2.69006122471286       -0.49488674301577
H           -5.26635384993258        0.05353336182539        0.76629059052617
H            0.19329323924821        2.57101687583323       -0.94940657476732
H            2.63108684260399        2.15773836096115       -0.04329990495268
