28
 energy: -50.630629371944 gnorm: 0.000872295873 xtb: 6.6.1 (8d0f1dd)
N           -3.08204065226739       -2.60300477952217        0.91526395005082
C           -2.33962805663880       -1.77683242039752        0.62007999729141
C           -1.37744682595100       -0.77750050965364        0.32112796267848
C           -1.98804547144987        0.44358583837608        0.11896564892087
C           -1.43645694492066        1.79978460571712       -0.27298157837855
N           -0.29568850299890        2.32062857916427       -0.00814807075459
C            0.85812161053450        1.92749758819657        0.45646622854576
C            1.58261624989545        0.78085512092487        0.20039416143456
C            3.00704601804473        0.78400364574864        0.20986571133592
C            3.46129988015799       -0.44590762317204       -0.26387499937364
C            2.36838970011937       -1.27307083408017       -0.49833989817248
N            2.48660440447576       -2.56913380752470       -0.96728898758590
H            3.41450876052966       -2.78500115925108       -1.30470774937414
H            1.76299009263613       -2.86328560988288       -1.60871025405447
C            1.15691327241058       -0.58663612332541       -0.17066967565977
C           -0.02931614037942       -1.26753616655950        0.11877983419399
N            0.03958309731626       -2.62772652742353        0.15034270981724
H           -0.77685692933936       -3.14548981456489        0.43366700682345
H            0.93950037650999       -3.06514710575011        0.26521065829526
H            4.49009783544180       -0.71713521561034       -0.41640954763363
N            3.81500230069352        1.81253372326965        0.58445570368311
H            4.77466129702606        1.77384298964064        0.28462999201040
H            3.42054829654270        2.73343884216395        0.66807692129932
H            1.37909616925232        2.73209088287411        0.97391594439779
N           -2.45506848768160        2.48476283852931       -0.81201568145184
C           -3.52184884582460        1.71310746836197       -0.60510425366995
N           -3.32235145504638        0.52606726678282       -0.04513237629816
H           -4.50772423958843        2.03781317836575       -0.88658746517169
