26
 energy: -47.198111849077 gnorm: 0.000724704770 xtb: 6.6.1 (8d0f1dd)
N            3.15769809418067        2.61169380214006        0.36317910733560
C            2.31018143771095        1.84868137556811        0.22878512500881
C            1.20979722738032        0.96181088736619        0.10975912818623
C            1.60970882628375       -0.34546142037849       -0.17309425651705
N            2.88190594507761       -0.56912761975369       -0.50731908248146
C            3.00829156943045       -1.90083306462853       -0.55362439222738
N            1.94625380047496       -2.60057401667654       -0.20393560442124
C            0.97400381751050       -1.68710772939486        0.03094954394920
C           -0.22267185701048       -2.12095161386031        0.53505736178320
C           -1.49232300720606       -1.52243837502609        0.65811912122253
N           -2.42889729539683       -2.28449570935802        1.26019160550448
H           -2.22311930015027       -3.23442885846886        1.51936214472031
H           -3.37843702429459       -1.95984278824804        1.31871446020994
C           -1.93709669921647       -0.30274973151367        0.10527930442131
C           -3.26653340350069       -0.13239916839507       -0.33914857625736
N           -3.48092510964522        1.07379752045921       -0.84278058390966
C           -2.36097359485108        1.77254796340767       -0.65566577793648
C           -1.32649554103121        0.99439547000204       -0.11270209456049
C           -0.06725206341092        1.56407193443382        0.20965546286712
N           -0.08607278016828        2.87152873503963        0.53303466828215
H            0.77573301124314        3.38732375005471        0.62060949889889
H           -0.96079645602665        3.36646928397621        0.54912118483962
H           -2.30151092156452        2.78659457057905       -1.00906587494855
H           -4.03274181017460       -0.88428988872010       -0.40533634572370
H           -0.19412132952947       -3.17160082695011        0.80773931365840
H            3.92960781078501       -2.36645511965459       -0.85261376160449
