35
 energy: -62.297790007023 gnorm: 0.000390540990 xtb: 6.6.1 (8d0f1dd)
N            4.05967914479279        3.56140381218477       -0.25756615051380
C            3.60121368267742        2.50753725096964       -0.17681980641151
C            3.09434138780866        1.21572142412328       -0.08361892517314
C            3.89288894275123        0.04789501963518       -0.18010994781880
C            3.04518440473797       -1.06740940405591       -0.02283583788141
C            3.47450849174459       -2.38947417797808       -0.03916941794789
N            3.84719712711840       -3.48013082283633       -0.04527284426491
C            1.70152510704632       -0.62581735796519        0.14504410157878
C            1.74172164561213        0.85005915141806        0.11505679285282
C            0.77473371320413        1.81564412298152        0.30506398470523
C           -0.61320551800497        1.80581228018026        0.41954389877057
C           -1.62553187661946        0.87829628360100        0.30350498318088
C           -2.97811460916995        1.33941294202819        0.23432927834433
C           -3.81451647803150        0.24398181195583       -0.01210136036307
C           -5.18700631583538        0.29419088114552       -0.24297359895848
N           -6.31791149737216        0.32522569837309       -0.45612927035420
C           -3.02684830768156       -0.93405584794526       -0.03384641673526
N           -3.58431581832009       -2.18158872739467       -0.25483861937435
H           -3.02787379641986       -2.81309392606478       -0.81398016935089
H           -4.54588797750072       -2.13122199779327       -0.56603721010660
C           -1.67975323917722       -0.60001919859289        0.19258349135158
C           -0.69999329689248       -1.57865788768991        0.45391603127619
N           -1.17281617037150       -2.81964578275076        0.75973146555104
H           -0.51728091541757       -3.53422358669234        1.02736717814641
H           -2.12844469226425       -2.92264815439924        1.05847640935667
C            0.71103002765052       -1.54942877052908        0.36477451503924
H            1.12658614117220       -2.55185611383574        0.45807210594758
N           -3.43874403272170        2.61121412081254        0.38017690338078
H           -2.80339748644452        3.38500096958281        0.29013506233159
H           -4.38920940258280        2.78322082144207        0.09630267170525
H           -0.99318562326619        2.81185990802695        0.56864702797663
H            1.19671396254742        2.81640238907541        0.33367830697588
N            5.21679195816512        0.01827507041309       -0.38252977092525
H            5.70260591625404       -0.86071305671451       -0.42758089297878
H            5.73180958369873        0.87645357327260       -0.47800210241035
