28
 energy: -51.447503343908 gnorm: 0.000763137490 xtb: 6.6.1 (8d0f1dd)
N            4.58126779164905        2.06343220282153        1.40347475357833
C            4.03842782951740        1.14527234440503        0.97504858781199
C            3.38238071428834        0.02924149016381        0.45925312428320
C            3.92057422693947       -1.26251364259529        0.26326952867187
N            3.07127853508114       -2.11364306721065       -0.28037949524951
C            1.89543879451671       -1.46274727330003       -0.44365127309250
C            2.08817937240354       -0.01388839486945       -0.09530045120990
N            1.35812544571663        1.01202359379256       -0.38324301504876
C            0.16454035105020        1.31461393334561       -0.79096935929251
N            0.06943338214982        2.41558660638194       -1.56416983376384
H           -0.82761574749731        2.79437499209293       -1.80716489001969
H            0.90242863931771        2.94215159916248       -1.76631379480403
C           -1.06084213948499        0.69319532676439       -0.37343369543679
C           -2.22866714058248        1.38360275544780       -0.15841390031272
C           -3.27614471589662        0.46950437855565        0.14820257442253
C           -4.59551499354435        0.79868643571014        0.46216423060182
N           -5.68710405556832        1.03930473066659        0.73174586972569
C           -2.76700839057748       -0.82202454287786        0.06340573534882
N           -3.48770830604835       -1.95604906304867        0.24258280725779
H           -3.02251672781713       -2.83081092535263        0.40959583893887
H           -4.41765317765313       -1.85710859414287        0.61537053454168
C           -1.34937458271560       -0.74004462015644       -0.24946898709983
C           -0.61883147455432       -1.87814428657543       -0.48111761832061
C            0.74683504576654       -2.18690139362171       -0.62408331695244
H            0.95178025701228       -3.24424019406369       -0.75160232274164
H           -1.22779946927614       -2.77746641725200       -0.50051102281019
H           -2.35446788815198        2.45126447104947       -0.16388175970354
H            4.92240957815790       -1.56981020509476        0.50843425647647
