27
 energy: -46.922025213844 gnorm: 0.000520624873 xtb: 6.6.1 (8d0f1dd)
N           -3.92527746881062       -2.24169780672806        1.04551936612262
C           -3.27435570538094       -1.37002298502432        0.66823427775905
C           -2.55802104578363       -0.26237519805533        0.22756872149691
C           -3.13696735617264        1.03957375176597        0.05307118881279
C           -2.15458283845894        1.90995457198029       -0.41006059527708
C           -0.92755272741389        1.23266816973960       -0.48013480779480
C           -1.22382415159379       -0.21449636610857       -0.19504270023676
N           -0.52915774110788       -1.28353272029011       -0.44560925801125
C            0.68733905576690       -1.66287247958541       -0.63057732688767
C            1.89048244466340       -1.08430832752503       -0.21559140771475
C            3.08898557232864       -1.77991121868959       -0.08228249918935
N            4.12656610658405       -0.99127965823802        0.24449711300765
C            3.65999195520420        0.25288242057608        0.28888470361002
N            4.49139566594714        1.29412036912915        0.53760121565022
H            4.11086433593625        2.15846923672586        0.88165921311587
H            5.41411470612114        1.04258792310129        0.85084061422298
C            2.24315153180885        0.32305215095670        0.00586557419780
C            1.60503164952480        1.51610033046412       -0.23479554935734
C            0.28262669782773        1.89602137377119       -0.49961647335529
H            0.16422365605544        2.96984400987015       -0.61423508601713
H            2.27091177321113        2.37350107813828       -0.18089517213973
H            3.23041716713587       -2.84125712304791       -0.17466555753750
H            0.76837016968185       -2.64433264655905       -1.09570755451100
H           -2.29532294856237        2.95708819881328       -0.60340865312197
N           -4.41980835626751        1.32532294490292        0.32579335847448
H           -4.80146471836365        2.22853087055856        0.10919763640515
H           -5.03120552229268        0.59939860245022        0.65830146657521
