32
 energy: -53.525703839386 gnorm: 0.000850881593 xtb: 6.6.1 (8d0f1dd)
N            4.29032700355024        2.42811802362163       -0.18100626564089
C            3.66223198340556        1.46223383828592       -0.12538300562000
C            2.93473356373250        0.28492734763014       -0.07216855707788
C            3.49043582081628       -1.02105333686189        0.09186806068351
N            2.55709203895957       -1.96680602962895        0.07798941487925
C            1.35568096611176       -1.35332537352280       -0.06533636686440
C            0.25316024687663       -2.15996062744802       -0.18784590172667
C           -1.12785773435376       -1.93484914871586       -0.24341506842034
C           -1.96810433164311       -0.86396152431019       -0.09412631413879
C           -3.38319251696777       -1.09938349496204        0.07416216959127
C           -4.00048686696105        0.09113530535412        0.38084584564120
C           -3.04577377821061        1.12672234508136        0.34106365330870
N           -3.38316863105004        2.44717502111597        0.60576339545511
H           -2.66162694626548        2.98458244470291        1.06566179371896
H           -4.28043571151449        2.53575574499545        1.06205317837417
C           -1.78456677262114        0.60280667974494        0.01541296840370
C           -0.68890131381240        1.42300810732346       -0.33815709624521
N           -1.00774479496506        2.72898093328474       -0.61934563656366
H           -1.94853824454298        2.93563838938683       -0.91019349043815
H           -0.27879678624004        3.31396828427732       -0.99287156211974
C            0.69225132949352        1.18492715987377       -0.36712439924592
C            1.53801681335822        0.11511463364798       -0.15055508639325
H            1.25532497957197        2.09748219594870       -0.55832347613290
H           -5.04179842335479        0.22382146619923        0.61469630810093
N           -4.03663193406563       -2.30214863427274       -0.04889393092890
H           -3.49409373759069       -3.14183701988581        0.07383206541814
H           -4.94595070355065       -2.33733667663502        0.38385484543287
H           -1.66311980049614       -2.87356014262748       -0.35513196966588
H            0.53185250717943       -3.20794221103724       -0.19918691819973
N            4.79278582257954       -1.29923933362185        0.25020328280647
H            5.47669390896873       -0.56522743773081        0.20987428919408
H            5.07903256729189       -2.25765052380517        0.33409058099317
