27
 energy: -46.930146106624 gnorm: 0.000766601411 xtb: 6.6.1 (8d0f1dd)
N           -5.71321001617889       -0.76680220142910       -0.88275970508826
C           -4.62265676528686       -0.59709278765215       -0.55984090478112
C           -3.29673908882020       -0.38219715813121       -0.17738074999378
C           -2.52260271548403       -1.21293980052824        0.63441856343847
C           -1.23887081948577       -0.66056837513439        0.74432824923333
C           -0.22061611193911       -1.22203918034347        1.54498497705871
N            1.05491830345128       -1.26098167225306        1.36510343871401
C            1.93743838865361       -0.70911316739172        0.57454919547759
C            1.91839301995813        0.64342465879126       -0.14277695688051
N            1.00201526668438        1.56750447804055       -0.13293164768124
C           -0.27569948373496        1.65053496947548        0.08858851138498
N           -0.75582065009979        2.90077279758742        0.27883361066574
H           -0.13001642460326        3.68406477450806        0.20620251381111
H           -1.74717763774905        3.05431343649906        0.31606912257187
C           -1.25478398699712        0.59652468164302        0.02378658162035
C           -2.52713292783542        0.75559292036669       -0.50606629356400
H           -2.87309662946435        1.57913968814505       -1.10551844283696
C            3.08976826452834        0.71527581426489       -0.87536066232635
C            3.82380324859906       -0.46800840942293       -0.67500840170204
N            5.00847772424911       -0.75427802506830       -1.23435381692332
H            5.47217003847431       -1.62083237662712       -1.02719096146354
H            5.46443152164034       -0.08756864622417       -1.83105053032162
C            3.11236505550792       -1.32559730845845        0.19726676155308
H            3.42928629208678       -2.30254249853305        0.50715805159584
H            3.38922200777395        1.54260784515627       -1.48905423463427
H           -0.55696995737134       -1.84054322459691        2.37661533142470
H           -2.83718452955741       -2.14812432738361        1.05912827904702
