32
 energy: -59.129368619226 gnorm: 0.000905839884 xtb: 6.6.1 (8d0f1dd)
N           -1.70157258644382       -4.10403420306702       -0.71850500101375
C           -1.36761279104479       -3.02683096990286       -0.50943084223162
C           -0.86567159348030       -1.71291877291168       -0.30453699736745
C            0.52623274263059       -1.62956260760676       -0.47552607671121
C            1.46577531196429       -0.65413529329794       -0.27074301461797
C            1.41699764539867        0.80962676907459       -0.15433636804632
C            2.71209252535528        1.23833501811903        0.07496926304378
C            3.59372963406415        0.13077527956687        0.12597240543992
C            4.96228861628169        0.17305426897667        0.39347396859274
N            6.09064253047330        0.17477764643001        0.61617394265032
C            2.85834652665961       -1.02350490420287       -0.14020487228277
N            3.38648947383630       -2.26855155382388       -0.23278278334321
H            4.33791615119665       -2.39209313433388        0.07082589762138
H            2.79393578219554       -3.07968891694565       -0.21208223800179
H            3.03519849951942        2.24683528748925        0.26234285463120
C            0.37686346323119        1.75185717168036       -0.42860268947582
N            0.81600333335295        2.93330615780887       -0.92599970848578
H            0.17673067941267        3.69769696684218       -1.06718586718757
H            1.78395969168044        3.05750270953471       -1.15782291492052
C           -1.00322448777309        1.67757870726885       -0.16814748999267
C           -1.70102562461692        2.89234030595996       -0.36149580424479
N           -2.26431434276864        3.88013776692546       -0.53740582485748
C           -1.86192206574936        0.65973496436724        0.31294420436466
C           -1.81951428459642       -0.82805005955218        0.18747398350724
N           -2.98414322806228       -1.35141345551378        0.58617908410019
C           -3.75903742380950       -0.33577151837190        0.99673447165725
C           -3.11931256761731        0.91934678387939        0.81747232834618
H           -3.54459712516108        1.87582419696929        1.04836782780252
N           -4.97176760974124       -0.55664879472064        1.50482641550996
H           -5.55885242700294        0.20570423562998        1.79195682159662
H           -5.30451355370470       -1.50388925409710        1.55996277513099
H            0.94729714382066       -2.60087576317652       -0.72412098601327
