31
 energy: -49.802995633989 gnorm: 0.000464552371 xtb: 6.6.1 (8d0f1dd)
N            4.59223124501490        2.05829810674060        0.14057968365450
C            3.79685657745929        1.22526478262906        0.08256818084722
C            2.88530175831017        0.17930542279932        0.02359293112564
C            3.25296702950485       -1.19471937717460        0.09271326029140
C            2.09175014308025       -1.95590280925465       -0.00836617062815
C            0.97170683963974       -1.11659423620372       -0.10828314149318
C            1.48254539841045        0.27461588748405       -0.10077726125185
C            0.87362603154766        1.50424573799704       -0.26229664458064
C           -0.44408527335024        1.93934863141132       -0.31953026424315
C           -1.69174026974912        1.37461061898761       -0.13576338378422
C           -2.80318971411368        2.24542129949146       -0.01941641093967
C           -3.92623742861538        1.52327208406060        0.29911840383085
C           -3.58681380623492        0.15782055870867        0.33214467499586
N           -4.51849863358874       -0.84454618092342        0.62465623330377
H           -5.37739534181721       -0.45581313807901        0.99218270274575
H           -4.15984243166252       -1.57176635310667        1.22996317954775
C           -2.21950831570147        0.00641633379664        0.03244186060127
C           -1.62707590947615       -1.24667597272210       -0.24159674577959
N           -2.51141199555172       -2.27468535278508       -0.44755815149993
H           -3.46051374628530       -2.04126946022648       -0.68852987087906
H           -2.15034529755020       -3.14725561917555       -0.79359898590430
C           -0.28808714824095       -1.66655778613952       -0.25893135150237
H           -0.22100589882293       -2.74733418230825       -0.37729391283811
H           -4.90841772018200        1.91509042322417        0.49751102755226
H           -2.74484390969061        3.31449217442851       -0.10869367689049
H           -0.51306509582566        3.01465975587139       -0.46044740758898
H            1.59602315689784        2.31364098813131       -0.32680256744512
H            2.05721476381507       -3.03026226607197        0.00608292683490
N            4.52025831753608       -1.64195873902215        0.19896708276901
H            4.70269265572073       -2.61942798087234        0.33613523520377
H            5.26441299372002       -0.98287239659366        0.34797578064196
