27
 energy: -46.926677142018 gnorm: 0.000561746538 xtb: 6.6.1 (8d0f1dd)
N           -5.76784421749380       -0.41392627990073       -0.56541571845017
C           -4.63518087774056       -0.39839126941323       -0.36307263737719
C           -3.25975113055272       -0.33250069571482       -0.13998817478023
C           -2.38500325280933       -1.41686671608123        0.10345106243972
C           -1.08775996941630       -0.95332340855572        0.22604390965580
C           -0.02145991151806       -1.82881364592290        0.51865641646402
N            1.24296014700153       -1.75795758952010        0.31103648491474
C            2.15115792096124       -0.84032919133278        0.07848156087906
C            3.41735321363934       -1.10489739358462       -0.40440203870814
C            4.18002847994876        0.07116421251648       -0.18497882988583
N            3.45573996404765        1.06924658365782        0.33872465567569
C            2.19022435756022        0.62496853043288        0.43429292347778
C            1.18022310791585        1.54839190918479        0.57920335816400
C           -0.20600492432458        1.49908884718977        0.39389587634944
C           -1.12866565106042        0.51406144721307        0.12485979595498
C           -2.51022273691262        0.84890737157765       -0.11362725276837
N           -3.03166522162267        2.09603750629684       -0.25571952061936
H           -3.98647731034686        2.15858053575639       -0.56884283184850
H           -2.42705908507859        2.86183775575227       -0.49745251525696
H           -0.64785262118783        2.49093979570203        0.43966641869747
H            1.57396989545035        2.54795620340776        0.72846516262777
N            5.48083637835326        0.23630270469056       -0.45965797885456
H            5.93126794684825        1.08536981735691       -0.16710688964382
H            6.02709123094988       -0.51939853740203       -0.83038768763851
H            3.78059414589489       -2.03661029671101       -0.78874751493239
H           -0.33390768863040       -2.80370971351224        0.89440857591535
H           -2.68980228667800       -2.44625148818159        0.15120444204771
