27
 energy: -51.721383223801 gnorm: 0.000977348634 xtb: 6.6.1 (8d0f1dd)
N           -4.12875272127658       -2.90401848142963        0.42333110942547
C           -3.52031299540082       -1.94108154163941        0.27600011751968
C           -2.78491523443906       -0.76410947207575        0.10703145621215
C           -3.26271998759446        0.53880660151337        0.29171372139658
C           -2.24030677137762        1.46262294448591        0.06722077101120
C           -2.33109023254324        2.85397057744030        0.15521262515811
N           -2.38820111820547        3.99921681365928        0.22855707926757
C           -1.06643286598117        0.76795227203572       -0.33045747013717
N            0.08460834580529        1.31436841776964       -0.43693078905475
C            1.36806085449268        1.05051114931836       -0.48290268717523
N            2.12495576760360        2.06411398794575       -0.96941300142518
H            3.09848188993215        1.90759524956987       -1.16557266818738
H            1.65359402761547        2.84602496202777       -1.39320239341483
C            2.02910568088398       -0.07445907530812        0.07239717254994
C            1.68225588534766       -1.48690133066696       -0.06185484036984
C            2.87240862523473       -2.17089853782840        0.27469248971450
N            3.84782800211040       -1.35407647895311        0.62722508045487
C            3.37626245401155       -0.09363836690186        0.49013242644614
N            4.20194390381615        0.96785685646096        0.72649005303224
H            3.76832899866297        1.82596445690295        1.03132465683589
H            5.04539742390130        0.71461224609833        1.21963035389914
H            3.01186224755917       -3.23553447998381        0.29735598525661
C            0.54641903813730       -2.11405559297804       -0.57298198587565
N           -0.69098644446989       -1.73761204871103       -0.49993760419247
C           -1.43760903843575       -0.71132915826235       -0.33093533868137
H            0.67206705899663       -3.12433113867239       -0.95293655456246
H           -4.27063346898800        0.78935251588223        0.57208071709633
