26
 energy: -47.209439508576 gnorm: 0.000791785271 xtb: 6.6.1 (8d0f1dd)
N            3.53056695108768        2.70636933559999        0.80708446314825
C            3.00638938139464        1.72990610496367        0.49515049862714
C            2.44083999985479        0.51224508436630        0.13896437149843
C            3.17518273381044       -0.71860502307373       -0.00633431592254
N            2.39723354026777       -1.73577063670367       -0.35352652218849
C            1.12797108714632       -1.27423241516824       -0.41152818084520
C            1.12868462900794        0.22098030663486       -0.24055596805635
N            0.22761827319730        1.11825701958631       -0.51580961520876
C           -1.04827390552044        1.23896192180391       -0.62273150146894
C           -2.07959880998743        0.44606131658126       -0.10841013071007
C           -2.13442392886677       -0.99664475157618        0.12391774057263
C           -3.51341134889932       -1.22580835699087        0.43894472223853
N           -4.23726152493758       -0.13535098816722        0.43847607482620
C           -3.39999296851214        0.88707741314289        0.09146162296261
N           -3.89496541985941        2.13739571989904       -0.01682065626745
H           -3.27311965644781        2.92277160258854       -0.07875936628338
H           -4.82766430281540        2.28791589641786        0.32633322697050
H           -3.95458394234323       -2.17847765367724        0.67116028678389
C           -1.27420749708062       -2.05380066195318       -0.06270396040321
C            0.09606898407621       -2.17869841343138       -0.33097416445707
H            0.45601299421311       -3.20131983289664       -0.35727302925733
H           -1.76297377072646       -3.01477257334417        0.07054569211716
H           -1.34864915710665        2.15490995844177       -1.13244103275187
N            4.49016556661438       -0.84950931731567        0.18446267921490
H            4.92411709252995       -1.73790237187381        0.00642208394746
H            5.04111508039881       -0.06174420715658        0.47809385541242
