32
 energy: -59.136139690216 gnorm: 0.000801268397 xtb: 6.6.1 (8d0f1dd)
N           -2.23752493862723       -3.30658298885259        0.42355864374709
C           -1.76508163648143       -2.26616700777372        0.30612210894176
C           -1.06165880876526       -1.04406185199042        0.15642874484756
C            0.30838898774553       -1.27618228403872        0.09440918359115
C            1.47608143038659       -0.53956320576512       -0.03291182480827
C            1.75697432715518        0.90996775430713       -0.15323315819468
C            0.97005244579403        2.02223133368576       -0.19926322667878
C           -0.41262251555653        2.28904279164885       -0.15641968874275
C           -1.55967129698387        1.55487189928041       -0.04184445251121
N           -2.71767582929699        2.28629147054055       -0.04927891521877
C           -3.71961323734562        1.44820975339123        0.07298859354729
C           -3.26059821223569        0.06697796662116        0.17265286358291
C           -4.18536439758038       -0.96354381748542        0.30863526573179
N           -5.08345777163063       -1.67635393319398        0.41655981850878
C           -1.87691124374971        0.10984169650761        0.09943914210208
N           -5.00230037332818        1.81156452738473        0.10292749142709
H           -5.24190290126727        2.78442443136242        0.02625123779754
H           -5.72081282469195        1.11396798683449        0.19793983717216
H           -0.64799510111983        3.34508727292335       -0.23268620617266
H            1.53361364391835        2.94489396283854       -0.30087163353516
C            3.19388465143341        1.03923286333145       -0.23678760275571
C            3.76434146264560       -0.23200335353120       -0.18294333208010
C            5.12747974496594       -0.52001304870639       -0.23103687968346
N            6.25327888197646       -0.75542668134205       -0.26360735073504
C            2.72381586106812       -1.19921685910310       -0.05874072140998
N            2.98143385586964       -2.51931847050241        0.01690059618867
H            2.24884494651074       -3.19898010793517        0.10737222528401
H            3.93399417778380       -2.83683768309020       -0.01294891028218
N            3.90246805887365        2.17763647567576       -0.38551705361527
H            3.47016174517651        3.07789150013525       -0.28453949151089
H            4.90567880964881        2.12693371546625       -0.34525870700658
H            0.51011264501404       -2.34268181182449        0.16916448017001
