27
 energy: -46.917106561643 gnorm: 0.000527168177 xtb: 6.6.1 (8d0f1dd)
N            1.18855804967301        3.65721610234836       -0.70048251706311
C            0.87305550606545        2.56115765660948       -0.56164080937438
C            0.43492539222310        1.22243139495113       -0.40563778546267
C           -0.95404883702178        1.15448053373015       -0.18162109534556
C           -1.85529147767033        0.14480127265476        0.04604651749300
C           -1.83245307973711       -1.30830723970723       -0.16520418903639
C           -3.16421924728260       -1.70571691738156       -0.05110984415084
N           -3.99364327073219       -0.69731492072186        0.25263149095800
C           -3.25132947703489        0.40867859464322        0.29676395792005
N           -3.82543058093282        1.61356334883190        0.52375560398383
H           -3.26327292513629        2.38808108750859        0.82895925819889
H           -4.78693031982492        1.59206076728185        0.81802109521780
H           -3.54574941664857       -2.70644259340631       -0.14157823895286
C           -0.79320966378623       -2.15490660017670       -0.55350935453988
N            0.47793244598610       -2.08009700903429       -0.34589312122392
C            1.40713501324653       -1.20959790532747       -0.07851243215709
C            2.67182380875695       -1.58768305932802        0.35294819013243
C            3.54009203249571       -0.48777461332506        0.23012272659230
N            4.85232298795693       -0.48931322108100        0.50809649897727
H            5.30073125578064       -1.32246268559011        0.84501573175579
H            5.40985601332480        0.32572852767790        0.32354831876821
C            2.80709185005596        0.63475112895277       -0.21964861422745
C            1.47391599555699        0.28334774378485       -0.34169913484215
H            3.21524266727271        1.61778593395628       -0.36257381817580
H            2.95091214274928       -2.58134587396552        0.64435164619359
H           -1.09926252868301       -3.09555706346387       -1.01075867567221
H           -1.40089253154905        2.14665768737932       -0.15703372296299
