25
 energy: -43.480388074005 gnorm: 0.000513794648 xtb: 6.6.1 (8d0f1dd)
N            3.59649278115277        2.52878202577534        0.24870929900923
C            2.95706345496893        1.58151090117757        0.11556035387109
C            2.25013444030393        0.38985673580000       -0.02979924682699
C            2.82678240475229       -0.90135193963376        0.14224789438586
C            1.83261039308167       -1.87301231026836       -0.05005110731155
C            0.63126328914237       -1.25672861612859       -0.37580436829416
N           -0.47928768558894       -1.92843850370797       -0.50428649795276
C           -1.75342546730492       -1.70263800647761       -0.45820239980859
C           -2.51532877388433       -0.61493311849397       -0.00219198291624
C           -3.86713837560010       -0.75973389130925        0.35208320541101
C           -4.42668980491196        0.49563426878260        0.56742005567338
C           -3.46828253931641        1.45766724681785        0.27463251572508
C           -2.25696099843106        0.82290989761550       -0.05269607876005
C           -1.15782032132373        1.52609608723298       -0.56171394888535
N            0.10770368973611        1.25191666865382       -0.54970223509117
C            0.89670862063104        0.24182385488709       -0.37874380033232
H           -1.36499703390937        2.53472428640733       -0.91641199525898
H           -3.60902419027709        2.52267412116216        0.30704180555139
H           -5.44470648097048        0.68868516492280        0.85218319536778
H           -4.37497582982680       -1.70211465576375        0.44988588732167
H           -2.33678570460550       -2.58577499446101       -0.71963141457781
H            1.97089633070104       -2.93322005901725        0.04031696190903
N            4.11096886847891       -1.12051604498820        0.45057113564150
H            4.73942142642300       -0.34312885157675        0.56419207228510
H            4.46189658267809       -2.05628867810533        0.55176322306103
