26
 energy: -46.401291361195 gnorm: 0.000576453179 xtb: 6.6.1 (8d0f1dd)
N           -0.70195956815685       -2.77945452246487        0.50872150728600
C           -0.18119526360685       -1.52682609308381        0.33509766000901
C            1.24878271590616       -1.52235344582141        0.43466077385004
C            2.23353954166696       -0.59659422834395        0.31690445117230
N            3.52801320041147       -1.00520889964556        0.14647954900621
C            4.12421434083266        0.01714771321602       -0.41482105022593
N            3.39074744792308        1.13154851610582       -0.62322104392992
C            2.20781315902657        0.86168582797302       -0.08392394572246
N            1.29893747732587        1.75326844741926        0.12953936795946
C            0.04347642561770        1.81708510159983        0.42339381200199
C           -1.00384436692846        0.94962657740554        0.12411123546685
C           -2.34411742756880        1.38276867669297        0.01196153433018
N           -3.19185352484503        0.36900435500400       -0.25735748151190
C           -2.46638141118059       -0.74227744541046       -0.26281813833069
N           -3.08500229381216       -1.94866975990957       -0.50371453190616
H           -4.05047902770499       -1.81089743710544       -0.77388072801716
H           -2.58578153678548       -2.57303513605917       -1.12265027065046
C           -1.07092861388230       -0.51197672555776       -0.01011880812417
N           -2.82272095769024        2.64528593246255        0.12335089871053
H           -3.76636777984914        2.78413942182632       -0.19614020612750
H           -2.18673762847280        3.41748560909761        0.03192964898083
H           -0.23871416994466        2.77266641032159        0.86382398673130
H            5.15980944426151       -0.01657224460823       -0.70447433815812
H            1.65912457447146       -2.52517601724356        0.52446450502416
H           -1.68725774685788       -2.85911053596598        0.70954989309392
H           -0.09656573295743       -3.48629585500421        0.89188730628300
