37
 energy: -65.724090677457 gnorm: 0.000746372746 xtb: 6.6.1 (8d0f1dd)
N           -2.33528628015915       -3.81154854657087       -1.12178399009888
C           -1.80327386560076       -2.84373359095381       -0.79566948816421
C           -1.13401793085104       -1.65534334070173       -0.43515529722643
C            0.25807150061397       -1.66286456021207       -0.68047886131870
N            0.75023035139229       -2.76457154626309       -1.29776323034131
H            1.73247330785047       -2.82212064835263       -1.50172950617436
H            0.13774175285297       -3.51333635727822       -1.57370394160619
C            1.22993458731012       -0.73649832150449       -0.22543842328551
C            1.23556640371045        0.72687798511699       -0.26818843980078
C            2.54341363683252        1.14215701336278        0.05195754590476
C            3.31876943331491        0.00552305884256        0.35130533144897
C            4.62623055236299        0.01386993472037        0.82467997242202
N            5.70029732159122        0.02420411557468        1.24110411555577
C            2.52879430766288       -1.14194568570137        0.12659723588648
N            3.01080408798518       -2.43733202677214        0.26962339820217
H            3.88471556085931       -2.47239246846492        0.77765307258383
H            2.33984754136304       -3.10688289731726        0.61997150308192
N            3.03616226780317        2.44104942594680        0.11629688851532
H            2.37980663864474        3.13108851991925        0.45640066573419
H            3.92216124729228        2.49163458417742        0.60255052009752
C            0.25495927574604        1.64627796079208       -0.70638176887039
N            0.72193107023406        2.72749558247313       -1.37583817766604
H            0.11016444358393        3.49181596666784       -1.60799539358200
H            1.69858590528975        2.78241678124365       -1.60689514898450
C           -1.12505687479674        1.66331427185159       -0.37846392988339
C           -1.76883188654970        2.89158079160442       -0.64166939782548
N           -2.27546055478409        3.89750451799185       -0.88063165723282
C           -1.94968341559443        0.74734079912813        0.29685014884145
C           -3.10778001211795        1.13749212936966        0.94956624350682
C           -3.82390973575520       -0.00866822294508        1.34309549008073
N           -4.95990820362955       -0.02218386525168        2.05519918499551
H           -5.42971499292307       -0.89030741625142        2.24230215158973
H           -5.41049954822740        0.84002856464672        2.30566827373391
C           -3.13084311279356       -1.14956981172189        0.87780298866536
C           -1.96298829731480       -0.75001984710284        0.25924146957557
H           -3.45298308681087       -2.16462457702820        1.01424938899607
H           -3.40486696918115        2.15041850116664        1.14504184344049
