28
 energy: -50.667750331321 gnorm: 0.000733508704 xtb: 6.6.1 (8d0f1dd)
N            5.70692792331539       -0.02402836007028        0.73819525540501
C            4.58591279250566       -0.06826236547862        0.48142921144983
C            3.22619453963981       -0.08138064249343        0.17542005213919
C            2.35334104211392       -1.19769861881307        0.25347161891235
C            1.07507100658461       -0.80287646239124       -0.07315871419983
C           -0.02379887298315       -1.71317532040448       -0.21569557821565
N           -1.25131707063243       -1.53519914475239        0.16650556079603
C           -2.12330921898515       -0.58633815525657        0.26004806645552
N           -3.27097581201979       -0.73403362111735        0.91412663782734
C           -4.02335847063195        0.31078995599505        0.50773869743184
N           -3.44469660821518        1.17702773618885       -0.34478343497988
C           -2.19400896928128        0.72472432524536       -0.49229647565330
C           -1.21087497665051        1.51482818886948       -1.05250645678296
C            0.17952204161695        1.48238690440457       -0.96266005005034
C            1.11448331541678        0.61567750863622       -0.42902592248382
C            2.48993876804923        1.01599592787002       -0.27429438557661
N            3.01335153689918        2.24846116774633       -0.53481363202636
H            2.39852844235850        3.04393601086254       -0.54266397369037
H            3.94321555844806        2.41899358985536       -0.18656822578402
H            0.62756472473093        2.39400233850537       -1.34908029725263
H           -1.61644178008504        2.41950004557984       -1.49167445542673
N           -5.27320425785866        0.47741725876234        0.93669899109914
H           -5.65688058356781       -0.17964415999992        1.59128002567587
H           -5.81661497243818        1.24301936599922        0.58178958170202
N            0.26479693798780       -2.94809786527426       -0.67973244014651
H            1.21340723727314       -3.20746622419479       -0.87885413459091
H           -0.45776602361049       -3.64732927588529       -0.67986725618449
H            2.65914985261787       -2.17672642198848        0.57651492714907
