32
 energy: -59.121044781582 gnorm: 0.000677580353 xtb: 6.6.1 (8d0f1dd)
N           -5.51493330674061       -1.68300987662555       -1.23988684515708
C           -4.49229017467829       -1.34201824362378       -0.83954786926766
C           -3.26790274194638       -0.87985857200527       -0.35480134120200
C           -2.09698222946228       -1.63971942094691       -0.15237243871260
C           -1.06461414923986       -0.80340132657823        0.24324078814089
C           -1.62240454840521        0.54451278492890        0.36251800495052
C           -2.99803076717260        0.44445099415616        0.00697240011687
N           -3.93493885652020        1.46804242994552       -0.02437194278724
H           -3.58900317754588        2.35663484631425       -0.36166694676814
H           -4.78514904997754        1.19216994732100       -0.50003973688822
C           -1.06424691313022        1.73971723508481        0.84357018139371
N           -1.90569356561225        2.62221660282019        1.42572477479713
H           -2.84420830316037        2.34218136367687        1.65857145683590
H           -1.56595266069475        3.51471616654392        1.73996667694508
C            0.24119429855650        2.24492677190494        0.60901820045326
C            1.37294003904943        1.73976185059750        0.04190026404565
N            2.30121897247789        2.65130879215113       -0.38911286442614
C            3.33116775618234        1.98365607713783       -0.83653233889599
C            3.19356351027080        0.57667784834995       -0.65656821227076
C            4.13341578904174       -0.36927162073975       -1.07201536941283
N            4.92207785698799       -1.10330104394058       -1.47065925493226
C            1.92391077592927        0.37413415152733       -0.10825987694512
C            1.48362728576226       -0.84786342320318        0.43856194714453
C            2.53378537446545       -1.73164989104903        0.78359393689985
N            3.34862695060084       -2.45667796507496        1.14656583502730
C            0.18922919713378       -1.35741746322562        0.65241403692360
N            0.10950554589375       -2.58936745635119        1.20159491522585
H            0.94448997701890       -3.12520390535455        1.37796052473704
H           -0.78733727531636       -3.02347335414313        1.32917620353725
H            4.16947991941520        2.48252059169556       -1.28931498165686
H            0.32348974245312        3.31515917946161        0.77715126806887
H           -2.02461256263714       -2.69032544635750       -0.36720040842077
