26
 energy: -47.211694985946 gnorm: 0.000599255944 xtb: 6.6.1 (8d0f1dd)
N           -1.17843959072068       -3.61432162664800        0.82082628253000
C           -0.86956415928367       -2.52299132419709        0.64630619608996
C           -0.41090624503440       -1.19530012421003        0.44719704020509
C           -1.43888987175969       -0.25929845360835        0.33922878918609
N           -2.70643194650096       -0.64071254439045        0.23512314318243
C           -3.35682467906369        0.44266401920764       -0.24939344297532
N           -2.61220770909923        1.54002914886540       -0.46028285932483
C           -1.39491944298438        1.21731781134443       -0.01662233495081
N           -0.48398452673839        2.10382846779839        0.18296529294860
C            0.78041998898010        2.18367191517980        0.46231632660381
C            1.84160275751354        1.34031253775038        0.15499606060025
C            3.16432612830035        1.79501201670641        0.09148285880344
C            4.01903831110343        0.74056103835452       -0.20100152727851
C            3.27083999245090       -0.43442190249863       -0.27301856533114
N            3.78970168603217       -1.67299194567625       -0.47572080130366
H            3.18643961315151       -2.42984966175235       -0.74580239700441
H            4.74822022076537       -1.73324571163022       -0.77209062551425
C            1.88520770145279       -0.12141332950987       -0.03814988518273
C            0.97514455691978       -1.11972154854670        0.21010446293232
H            1.41483241161356       -2.11524232202573        0.20421682344898
H            5.08417077920876        0.80513228572117       -0.32745788801957
H            3.45913981689397        2.82163974293858        0.21007035512445
H            1.05294924744764        3.14636783688166        0.89319037157933
N           -4.65768112217663        0.40393506743080       -0.52018399412632
H           -5.17650509110485       -0.42844625571662       -0.30431248963865
H           -5.10285587106867        1.21623216613153       -0.90764940748501
