29
 energy: -50.368233767548 gnorm: 0.000811661928 xtb: 6.6.1 (8d0f1dd)
N           -1.75062582514554       -3.59137380772083       -0.54793222542230
C           -1.30437437675900       -2.54472069378933       -0.39720609403644
C           -0.66821076749202       -1.28615305144790       -0.23779584457976
C           -1.55591758110108       -0.22376607498762       -0.10086949705586
C           -1.30289155055887        1.25216696241274        0.09771957617540
N           -0.28298980178073        1.98646442068993       -0.24827529236815
C            0.98203838433606        1.85648013044606       -0.51274867293659
N            1.50114162065375        2.86849345727980       -1.25620974517411
H            0.87380088943453        3.55539099662639       -1.63590092479342
H            2.45173887887087        2.82997250123546       -1.57320223093784
C            1.91672337526782        0.91292303534693        0.01479218370534
C            3.24042871655378        1.21243531945308        0.27595667540262
C            3.93337227996142        0.04738265059249        0.65636157205932
C            3.06891854701387       -1.02013460809514        0.57651523228360
N            3.39624713688747       -2.33486071597153        0.79769765686994
H            4.25630761817690       -2.48605972870606        1.29978133926541
H            2.65382800734575       -2.96643923381097        1.04975579918901
C            1.75655898591804       -0.53126639740258        0.19147403069679
C            0.72637695458805       -1.40087102631214       -0.04876241974578
H            1.02717026225156       -2.44639912632078       -0.03052147828238
H            4.96930490703911        0.00150011169940        0.93780047002863
H            3.67653362485796        2.19555824350395        0.24937222860233
C           -2.52122265707740        1.74839534000557        0.53671738074356
C           -3.43214977208738        0.67830066916847        0.46198031730952
N           -2.85492190785306       -0.47603500645625        0.05991794609092
N           -4.74442406564597        0.70635801010157        0.72641405041369
H           -5.26729410636557       -0.14543153356488        0.62238671190301
H           -5.17793055546355        1.52518039549279        1.11140794421667
H           -2.74787391252745        2.76250533983159        0.79579623987746
