30
 energy: -50.883806613260 gnorm: 0.000564188736 xtb: 6.6.1 (8d0f1dd)
N           -1.13966702126682       -3.28621670829658       -0.46705994244888
C           -0.79188785344131       -2.20253113908128       -0.31283829121981
C           -0.19706955886253       -0.92097560262292       -0.16453877899895
C            1.19406114743494       -1.06119736469705       -0.13611337028831
C            2.29661820784618       -0.23954412356174       -0.02849910450342
C            2.46764036192313        1.23308253582955       -0.03173703869199
C            1.59801766072375        2.29392464330551       -0.10694023560839
C            0.21148367764962        2.45474054044584       -0.13451867349913
C           -0.89612284451102        1.63206028103191       -0.08182168605974
C           -2.17812263721425        2.21732190585040       -0.02789430272304
C           -3.14379999158992        1.23250843199577        0.05491363878094
C           -2.47382669198013       -0.04624444662185        0.02631108897644
C           -3.23599518922191       -1.20856113741817        0.13596698483132
N           -4.02097532132038       -2.04221117805871        0.26115996453390
C           -1.09701458448701        0.15751745996947       -0.06546307567215
N           -4.47569273184899        1.36885629478616        0.14717323102724
H           -5.05396049166201        0.54877070575274        0.22115868667079
H           -4.89877849722345        2.27853750981410        0.18098961682164
H           -2.36597128490202        3.27475806432557       -0.02866930935333
H           -0.07764601593879        3.50137716317902       -0.17171162390900
H            2.12152946103223        3.24605657769376       -0.12747493685202
C            3.86127998483055        1.46704848148856        0.03642817940617
C            4.53768387857041        0.27068918803665        0.09743848380732
C            3.60426770181341       -0.78345004785580        0.05656706617289
N            3.95666053863895       -2.10161255052752        0.04720359658114
H            4.89649564063298       -2.32140909526214        0.33035730144301
H            3.26275692098503       -2.79486239252417        0.27118589906578
H            5.60323040749686        0.14266692224313        0.16386885921551
H            4.31030951892407        2.44324525604127        0.04760032629706
H            1.46987586656856       -2.11155527636179       -0.20804541310318
