29
 energy: -46.353471856426 gnorm: 0.000891996567 xtb: 6.6.1 (8d0f1dd)
N            5.46048392404914        0.23885803036523        0.11160619299861
C            4.31648895445450        0.22994835682956       -0.00912188911838
C            2.92862525852121        0.18158261219659       -0.14166935575823
C            2.05585208472273        1.26594527584406       -0.14844521961742
C            0.72807122126013        0.79824200620215       -0.21118502521008
C            0.80359043006290       -0.67377057293574       -0.30793310005812
C           -0.13911756975834       -1.67644075317903       -0.58449601978265
C           -1.50368238899930       -1.78996105002724       -0.54552692227954
C           -2.54873862499463       -0.95977030328672       -0.11489476480298
C           -2.58376552819906        0.47033176411008        0.29549126812734
C           -1.70661912361150        1.50176807741224        0.20064524106651
C           -0.34529552644731        1.69179649284476       -0.19342946369444
N           -0.06104187033242        2.99659905325060       -0.44732681066056
H           -0.77609131665059        3.69827053440907       -0.37999686514105
H            0.84279420617473        3.26516805395623       -0.78734177316335
H           -2.15962237971303        2.45282939207971        0.47857129191000
C           -3.93037939397502        0.71956674782891        0.72290749499471
C           -4.66903469489117       -0.41427703064547        0.55526096244188
C           -3.83580070435080       -1.43394124094415        0.03006867493407
H           -4.15687086239216       -2.43433695698105       -0.19550269766030
H           -5.71482215832943       -0.53161318688737        0.77865648476800
H           -4.27909004114524        1.66724208777250        1.08974330062181
H           -1.87010459499525       -2.77050666132584       -0.83505919190109
H            0.34642931396931       -2.59993333138819       -0.88599913845672
C            2.16766649281096       -1.00826190482556       -0.26674121558281
N            2.73309268295586       -2.25931696453009       -0.37505616502642
H            3.70856430320531       -2.30340679034922       -0.12172569310986
H            2.18798124212002       -3.03714192626213       -0.03968203661448
H            2.38210646187582        2.28079880326596       -0.01135630422376
