29
 energy: -49.571709877634 gnorm: 0.000601696933 xtb: 6.6.1 (8d0f1dd)
N           -4.88636028669989       -0.54536829112103       -0.77554238324600
C           -3.63166737524776       -0.28026913772844       -0.37839477615512
N           -2.70216046953050       -1.25999182745682       -0.38061889144979
C           -1.56831430823917       -0.70300994595310        0.04217699755925
N           -0.58373417345287       -1.45618502066243        0.41060455532411
C            0.69962250293260       -1.34444178415419        0.62946043449572
N            1.23870778954231       -2.31165691405263        1.40417341003596
H            0.64766668474871       -3.05030030702844        1.74352172239262
H            2.23813895791251       -2.36926216919643        1.49541212751813
C            1.59539109187742       -0.43037063424827        0.01692092396118
C            2.88397062554519       -0.75290134807111       -0.43663694165737
N            3.54269007089656        0.32368392675942       -0.89370370416062
C            2.74575548371931        1.36828310861095       -0.68051318153496
C            1.49638164663558        1.00822277872849       -0.14254339517568
C            0.52871526462553        1.94537941376163        0.29550185030863
N            1.00981711635292        3.19789659439609        0.54705973046447
H            1.97131329791966        3.39869274287603        0.33925515040467
H            0.37178308312491        3.96964481546594        0.63451602504076
C           -0.85641460240072        1.81321414310420        0.45771272853249
C           -1.75811844441014        0.78718268456882        0.23553302859478
C           -3.12245747935676        0.96315598348368        0.03786761184020
H           -3.67628869347944        1.88003378544590        0.10013739637652
H           -1.34925679071521        2.76176356961572        0.66374930237800
H            3.07389999629539        2.34249492128465       -1.00103540105998
N            3.48262486271269       -2.01062460372083       -0.45384101951022
H            4.32427064053754       -1.98692345751059       -1.01536584489561
H            2.86135177557592       -2.75319517674340       -0.74874576300699
H           -5.61851091932480        0.12800666101103       -0.64290932181807
H           -5.11700383099715       -1.49607259646551       -1.00377127435730
