23
 energy: -39.252455628885 gnorm: 0.000732468347 xtb: 6.6.1 (8d0f1dd)
N            4.49768864449336        0.02203640758589       -0.41705175776649
C            3.19220211074148        0.00964255454917       -0.15248378904802
N            2.41740542868414        1.09203282903973       -0.36471147128776
C            1.20542018077333        0.72388105412097        0.04542255147459
N            0.26605313950890        1.58754163795832        0.26118612164933
C           -1.00633502014616        1.62901847008208        0.45449305673911
C           -2.02662802279398        0.74381292215892        0.07626227862483
C           -3.34334721177092        1.15647584150512       -0.11498671306537
C           -4.14251480797567        0.04179882821157       -0.40128391143493
C           -3.35513563186926       -1.08782585378539       -0.33644611334724
C           -2.01437304669873       -0.72051040140868       -0.05616757624255
C           -1.06689989858833       -1.69716676832235        0.21082905023085
C            0.29918312728783       -1.71923465495318        0.46412755234604
C            1.28161976620863       -0.74717349555153        0.39061286792989
N            2.57083654821584       -1.08799255552161        0.32128723880135
H            0.72363973091899       -2.70905993778887        0.59297754682918
H           -1.49602542659839       -2.69531310764915        0.17554564701321
H           -3.68853651498960       -2.10076085473738       -0.47202997821724
H           -5.19801226144783        0.06749279456547       -0.60275127446766
H           -3.67929804410152        2.17676946551585       -0.07643438275801
H           -1.33960938740838        2.57225882527615        0.88647805032313
H            4.91479689763642        0.86458105967261       -0.76965420392269
H            5.05492698171982       -0.77884414752394       -0.18240320040340
