30
 energy: -54.106412449461 gnorm: 0.000955134205 xtb: 6.6.1 (8d0f1dd)
N            5.43002293273194        0.41966015962498        1.35172072439918
C            4.35607352161625        0.41326175151311        0.93547365603047
C            3.05362405214689        0.35531008087186        0.44748505752872
C            2.19849620462262        1.43273566689273        0.18254032470177
C            0.96740081490471        0.93088458084601       -0.24038451111861
C           -0.11075542727769        1.73886527360990       -0.71235913331319
N           -1.37753939790284        1.60574424341110       -0.42266908019366
C           -2.18397907265156        0.68491063563196       -0.01937816412622
N           -3.31170089375386        0.98438841718220        0.62063506349166
C           -3.91522143662749       -0.18627863151985        0.90826338173115
N           -5.08683293474062       -0.19371672884057        1.55076410050297
H           -5.50185915405492        0.68649421610956        1.80090463981547
H           -5.54434728601231       -1.05547059646787        1.78583018839103
C           -3.18433849135161       -1.31835173606413        0.47689559095817
C           -2.05932945675691       -0.83453998941957       -0.15479549858300
N           -1.11798045091746       -1.55111595081917       -0.71322211036919
C            0.15921676670713       -1.42618139874886       -0.91959097004549
N            0.71139250196899       -2.35584267982835       -1.73498082066834
H            1.70979479844026       -2.39237321046075       -1.84103821759935
H            0.13115890631225       -3.08084155676362       -2.11913821589663
C            1.07614927402150       -0.51178206130237       -0.29228327491182
C            2.37518587975676       -0.84136807511872        0.10488503088592
N            2.94937637759317       -2.10990239112734        0.13391231811563
H            3.80428205340396       -2.13514973951585        0.67426636494565
H            2.31393085664019       -2.85033051962250        0.39778247359493
H           -3.47018777780747       -2.34270795905895        0.60581809986588
N            0.20895071584785        2.84455783928659       -1.42482557595195
H            1.17481555185033        3.10830700897907       -1.50910684319319
H           -0.50848595271554        3.52933964355609       -1.59421824740055
H            2.43773956440417        2.46626096226168        0.35749775381409
