30
 energy: -54.103840847682 gnorm: 0.000903311449 xtb: 6.6.1 (8d0f1dd)
N            3.88748668812025        2.57496145384102        0.66128132958103
C            3.29153219550523        1.61740992280048        0.42606093314476
C            2.63429032420425        0.42403335073999        0.16115500974836
C            3.26004833543073       -0.87157991229362        0.15590256417108
N            2.41950167894912       -1.84774164173048       -0.16088143052888
C            1.19260121447165       -1.28670793955909       -0.31676036120291
C            1.30913408576444        0.20662460691242       -0.21972587716038
N            0.49146374004765        1.15004821512556       -0.59564076454204
C           -0.79295134243273        1.30485077813298       -0.72583304034214
N           -1.17076317560611        2.36183402613524       -1.47842274755624
H           -0.46408077492290        2.92997373819099       -1.91207983273671
H           -2.14443984465749        2.58819796864656       -1.57659510908735
C           -1.83108021283293        0.59383705654421       -0.04828308016990
C           -3.00179519251835        1.17941537912514        0.43940413568081
N           -3.86989081296558        0.25707508299102        0.91976126695009
C           -3.32721569976219       -0.92160774560916        0.68752878539452
C           -2.03294985953730       -0.83332452743081        0.10735761557680
C           -1.28840764175741       -1.95850950076813       -0.28079590869697
N           -1.98714850308758       -3.10924095307060       -0.45601910282203
H           -1.50146994661401       -3.98503254319575       -0.54042792885948
H           -2.97562141364787       -3.12180745279390       -0.27905877004537
C            0.11378143461702       -2.11738406422943       -0.42789274488768
H            0.42179024882851       -3.15592723622696       -0.51403237288037
H           -3.83532848003135       -1.80715748593767        1.02826814602845
N           -3.33499381357648        2.52257666300210        0.47069329381533
H           -4.12715658448692        2.68789948180984        1.07641661770816
H           -2.56254851064214        3.14589840795112        0.66206199957703
N            4.54842630085802       -1.09517829446812        0.43385280951744
H            4.90688737327473       -2.03150127338950        0.37445907645584
H            5.14913988620867       -0.33245302634306        0.69335370846730
