28
 energy: -50.657130568236 gnorm: 0.000800574159 xtb: 6.6.1 (8d0f1dd)
N           -1.82266339882022       -3.53326342664337       -0.76570538499007
C           -1.24803503153688       -2.56613646533983       -0.52235637291248
C           -0.53334517129854       -1.37779932138489       -0.25727378508569
C           -1.38266927387448       -0.26478015106064       -0.07929323468517
C           -1.08720928317660        1.22071138748574       -0.09326584229027
N           -0.07797663037481        1.83721244348676       -0.60768497147267
C            1.19454307919145        1.63004026131492       -0.79925881926117
N            1.79165093542328        2.37633605385801       -1.74743303846653
H            1.25682399105571        3.08658594803551       -2.21909764486833
H            2.79544062905526        2.38856685547013       -1.80249675280519
C            2.01187449128017        0.79812716987250        0.01735364864096
C            3.25919128076253        1.14014340592956        0.54322673428957
N            3.80591101260870        0.13286469500121        1.22989935307196
C            2.98260959782947       -0.90333450712658        1.10126819755192
C            1.81156652598679       -0.58099350835450        0.38721090541917
C            0.85132656172186       -1.54429657454156       -0.02639724794365
N            1.32626265799929       -2.80730870928459       -0.14066035067069
H            0.69586339493561       -3.58144619450031       -0.27308041855785
H            2.28751400698809       -2.98841670504662        0.08704166146792
H            3.21483259495620       -1.83092656466007        1.59592813835447
H            3.73863647643541        2.10216068522621        0.50354662238056
N           -2.16423006831396        1.90702548749108        0.29502855530231
C           -3.14600730100812        1.00853300702853        0.46581232154655
N           -4.36210730037762        1.38808162685148        0.86087779168313
H           -4.52539199677117        2.36137245402102        1.05149735590137
H           -5.10966272674457        0.72301443743366        0.94443116861166
C           -2.72836816190023       -0.32571929314885        0.19870174822956
H           -3.34294039163417       -1.20035510281147        0.28431987645987
