31
 energy: -53.014051775965 gnorm: 0.000580898189 xtb: 6.6.1 (8d0f1dd)
N            5.17677889576364        0.06633589022367       -0.63261269835096
C            3.86629598260496       -0.01509608554009       -0.32657420521554
N            3.21167073286720        1.02397596853153        0.18242311402944
C            1.92178162806262        0.62024494965276        0.34752358323022
C            1.82031209052546       -0.84590070287485        0.03827360768974
N            0.87672527476438       -1.71153837746480        0.35363749869453
C           -0.40756589604197       -1.68219632445535        0.50234110635321
N           -0.93038598387457       -2.81513254975142        1.06332273032981
H           -1.88052864897992       -2.79860054210289        1.39039136854217
H           -0.27771700511982       -3.44042127882419        1.50548467147741
C           -1.36295645674394       -0.73402648579528        0.01228882208047
C           -2.64496014601327       -1.07391284037456       -0.41386741388323
N           -3.40154335201507        0.01473098245189       -0.70944422638203
C           -2.66791308608165        1.06968690448688       -0.40558255992069
N           -3.18324640494914        2.34339805269387       -0.58008578116112
H           -2.53265919794265        3.00134175284567       -0.98974134880146
H           -4.05828457761861        2.30016537986210       -1.08701277903896
C           -1.34918739544786        0.72012915187211        0.05355048185570
C           -0.43026344627962        1.65012349669736        0.53756683172235
N           -0.91681097313682        2.90265262168760        0.82125042379932
H           -0.29941843316792        3.54228750305916        1.29249734636624
H           -1.90154098707085        2.98752482473660        1.01715507659764
C            0.98620534047835        1.57020102449444        0.63209783700856
H            1.44929566601098        2.53287045983827        0.83290104325252
N           -3.19615422450753       -2.33309525473201       -0.55806660592879
H           -4.02638360840162       -2.31255173945970       -1.13304477864704
H           -2.53822197097407       -3.05148642893619       -0.82527062985032
C            3.06059892280775       -1.18223880759584       -0.45142306084931
H            3.38727760734145       -2.14262158372091       -0.79707360047853
H            5.59646793000735       -0.64134138063096       -1.20806944662850
H            5.61130808393349        0.97104524372792       -0.58071265169482
