32
 energy: -58.342492576391 gnorm: 0.000968266733 xtb: 6.6.1 (8d0f1dd)
N           -0.84141672874366       -4.36673568407906       -0.41388015302095
C           -0.60717613581808       -3.24645207517233       -0.30959153915533
C           -0.26870313575555       -1.87527845637703       -0.20658336700912
C           -1.36478147887305       -1.01212758608967       -0.16253493331371
C           -1.38681945676142        0.48688188536875       -0.03488041455499
N           -0.51293328052140        1.36985908203801       -0.39268697009933
C            0.75660920977875        1.51900449206634       -0.64286777554397
N            1.04955172987759        2.58709220077452       -1.43114932924419
H            1.97520733730312        2.67876269299979       -1.81099137585305
H            0.28264465345418        3.04604736419716       -1.89354620940059
C            1.83703134829948        0.81311687930076       -0.05919870010527
C            3.12270517577207        1.31766353952277        0.15523140069808
N            4.00457209428427        0.36111226007147        0.55014559803448
C            3.34369896163660       -0.78207108181678        0.55215068577531
N            3.96306545218383       -1.94224134008822        0.85827766835148
H            3.42199889083743       -2.74824899792871        1.11511329171887
H            4.89332486715957       -1.86408477485576        1.23166828043404
C            1.94302974111645       -0.61932118135149        0.19085759716185
C            1.11924383107447       -1.69619064554744        0.01001117230089
H            1.62778023463452       -2.65386716239954        0.09656280127447
N            3.55709175946789        2.60790727933694        0.01342593797481
H            2.87157233920887        3.32930438375532        0.17938279613464
H            4.45432046402622        2.77015517307751        0.44555160168825
C           -2.68790136183399        0.83238719215994        0.36562610343831
C           -3.17181194882700        2.10554806721548        0.63772883792419
N           -3.61926142787302        3.14024931862425        0.87647565075270
C           -3.48673753219453       -0.35216888571137        0.34995572243216
C           -2.68140280326898       -1.44261052762846       -0.00022521982484
H           -3.01356312592592       -2.46272172619228       -0.04817068850886
N           -4.79441719187205       -0.38318169886521        0.63880057649204
H           -5.26759267388465        0.46132181527998        0.91155315600485
H           -5.31191168676098       -1.24142500008480        0.57313548984245
