26
 energy: -48.785022663394 gnorm: 0.000987505209 xtb: 6.6.1 (8d0f1dd)
N           -1.27832549494120       -4.28244977854009       -0.08778334158978
C           -1.06950234921846       -3.15699263321284       -0.06322860291429
C           -0.92019201349749       -1.73613195599923       -0.03542309042605
C           -2.16488402800392       -1.07738435120359       -0.03152248669994
C           -2.56942022775164        0.23021470026347        0.00270185615620
C           -1.85297921470813        1.54077530294811        0.01795150842985
C           -0.51937708613458        1.91889659589092       -0.01670526630643
C            0.72201175965835        1.28290587056373       -0.03814659410045
C            1.76279491792623        2.25531217442073       -0.10879881014158
N            2.51315384005871        3.11810127048314       -0.18407212797637
C            1.14533759221661       -0.05528174199995        0.00052295720209
C            0.41045535336318       -1.34772825856281       -0.00312452496601
N            1.29790767059044       -2.37205630691223        0.02250299438991
C            2.50753243157856       -1.86384301332505        0.05077720933633
C            2.49478109703538       -0.44508396992017        0.03280385387954
C            3.67395690463975        0.30771062663712        0.07179081366091
N            4.70064695597299        0.82000490316968        0.11255771670019
H            3.37852899344909       -2.49265783195026        0.08415769646320
H           -0.41520504690321        3.00207804292963       -0.02847928702712
C           -2.84884717207241        2.51847315256419        0.05397652571307
C           -4.11239091636346        1.91359462885837        0.06297104844928
C           -3.94997621873840        0.54402348158158        0.02762443621159
H           -4.73554186877809       -0.18837730508087        0.02212814345294
H           -5.05048339248091        2.43712122123409        0.09113058260854
H           -2.66667564704763        3.57719347407206        0.07226505339095
H           -2.99560405795049       -1.77920610710914       -0.04824314939694
