30
 energy: -54.091510190582 gnorm: 0.000756389927 xtb: 6.6.1 (8d0f1dd)
N            4.81219470747161        1.59873429844178       -0.33261335953894
C            4.06621141491095        0.72358280555109       -0.27727931751808
C            3.16589883427115       -0.33653818138765       -0.20739816372489
C            3.44935601196389       -1.69686290460371       -0.54107143973957
C            2.33345892145449       -2.46910660821655       -0.38562936480139
C            1.26849536052875       -1.65578286427127        0.09221394349181
N            0.07060462406085       -2.08034347601729        0.22934069754079
C           -1.16162067466315       -1.62272734309321        0.38367625783827
N           -2.04120113961971       -2.59881899040251        0.78714243470061
H           -2.91788231324773       -2.30366286458530        1.18366354573246
H           -1.62339490765907       -3.43644317442943        1.15916179087303
C           -1.67906340707161       -0.39838105973724       -0.05377607684390
C           -3.02431679615601       -0.19226951468680       -0.49481366875659
N           -3.29004246923236        1.08728605499401       -0.72678473980905
C           -2.17625484402392        1.78000609545011       -0.39624750371037
N           -2.18858328922551        3.15384386259925       -0.45646850947639
H           -2.96567682087464        3.50740361781961       -0.99550420913324
H           -1.30371545742775        3.58582365918737       -0.67890757039247
C           -1.11950757991240        0.94698562633472       -0.00582133261656
C            0.07116359675142        1.38514170873956        0.64365401705764
N            1.25854135140373        0.85595330113909        0.57962266589248
C            1.84129741849239       -0.24593896079227        0.22301903386522
N            0.02187891250504        2.57930371359837        1.29306829265606
H            0.84262666082720        2.87289211226958        1.79455224689665
H           -0.86992527396106        2.98591981238053        1.51436053458109
N           -3.97934590161154       -1.15628587857268       -0.68628083557164
H           -3.63299656396806       -2.06892561341853       -0.94394818939045
H           -4.75879843208097       -0.82983126723217       -1.23865797648618
H            2.25029730658018       -3.52565828052914       -0.55155357565314
H            4.41550661800974       -2.03610888063258       -0.87208118566728
