27
 energy: -47.711385918700 gnorm: 0.000779688698 xtb: 6.6.1 (8d0f1dd)
N            3.00310437710932        3.37667968764495        0.37575636376224
C            2.42562371038150        2.38973009350915        0.28393774908612
C            1.67124910527953        1.18764383799830        0.19549359519304
C            2.46025399569333        0.02764213385189        0.16671963589167
C            2.01006426453223       -1.38806566261574       -0.12256922710195
N            0.90700301485748       -1.98077749188611        0.14673170049784
C           -0.32096682982311       -1.76617659412727        0.51014929529327
C           -1.17272674073365       -0.73019472909047        0.16294674060092
C           -0.85325304167696        0.69039328967302       -0.11013504937832
C           -2.08515097891270        1.33909513181383       -0.29214107204592
C           -3.12859081772626        0.41986728686524       -0.16983031136894
C           -4.49685700921371        0.67345950011664       -0.29630719420112
N           -5.62909283915157        0.83552386370610       -0.41009286196382
C           -2.57986173477315       -0.85129483490403        0.14141981139686
N           -3.31750585225970       -1.96511045130272        0.37909224850280
H           -4.29536788569276       -1.93952334234034        0.14351572956892
H           -2.87033461068727       -2.86425336478350        0.39039639438372
H           -2.20993773205247        2.38697144948392       -0.49292078469034
C            0.30568433062954        1.44235070474059        0.01525758208957
H            0.10196027449365        2.50845124313807       -0.05930147351433
H           -0.75796007129642       -2.61489440992542        1.03568142249500
C            3.15465141830287       -2.07448207930115       -0.59537218501606
C            4.24552081080766       -1.24878966871870       -0.44017070785432
C            3.83687353492901        0.01917414504054        0.02790036229980
H            4.48820642730759        0.85671533477904        0.19309421464553
H            5.26532435440877       -1.51779133874573       -0.65172861842680
H            3.15582861656654       -3.10050507261796       -0.90705727154520
