25
 energy: -42.688908822752 gnorm: 0.000707843615 xtb: 6.6.1 (8d0f1dd)
N            1.16093128316405        2.83616654824411        0.79456903923958
C            0.60333015996390        1.65231452720570        0.43542560282659
C           -0.80894716420718        1.63329551884480        0.57100675023694
C           -1.77646351905877        0.71852995036363        0.27373206505788
N           -3.06925317928364        1.10232379477456        0.11976541990894
C           -3.66731650619820        0.05150529195027       -0.41207189153798
N           -2.93728962420843       -1.05983191308190       -0.58330071658276
C           -1.73441723756005       -0.74067463565561       -0.10684125362200
N           -0.82795423672697       -1.62445634388870        0.16528385516559
C            0.44411046532803       -1.64037642376786        0.42011727071594
N            0.88982247531993       -2.68907911570876        1.14362765894385
H            0.23781500782701       -3.41179450016557        1.39874008727227
H            1.87714110050877       -2.85686099859989        1.22037546806151
C            1.43457364130155       -0.75751439222008       -0.12952156417671
C            2.63389128055207       -1.20776797923547       -0.65788340450547
C            3.41466516290904       -0.09972268179953       -1.02324051681441
C            2.74733478733624        1.04249041052212       -0.64883573731076
C            1.47825200759089        0.69423468999435       -0.11207139841297
H            3.09891741277118        2.04190468758322       -0.83560800988121
H            4.37791261606338       -0.14434154762350       -1.49749438550751
H            2.89886040730751       -2.23728087565510       -0.82062812112637
H           -4.70517706316640        0.07882383437441       -0.69494156547082
H           -1.23240967890799        2.60264966874747        0.82039368082899
H            0.57873474860099        3.62635723167440        1.01065290429614
H            2.14480362007326        2.98387590212271        0.66038995389496
