30
 energy: -50.087660169051 gnorm: 0.000760236495 xtb: 6.6.1 (8d0f1dd)
N            5.81654496532116       -0.15293332789433       -0.28948371961395
C            4.67739555645548       -0.16785462742633       -0.12568031103711
C            3.29643243538033       -0.14558767984964        0.06341263233799
C            2.42899004514586       -1.23836116971091        0.01407556055493
C            1.10594340262748       -0.80023062239347        0.17916109006884
C            1.16739227911127        0.65789963305466        0.37881539313620
C            0.22659872297046        1.64273311432119        0.70670994139943
C           -1.13750648339949        1.76328067310593        0.68272069696395
C           -2.18228987669897        0.93039538663886        0.25782648352371
C           -2.23566142394994       -0.50716620866332       -0.11962354928043
N           -3.50722293924863       -0.83750700721940       -0.47116939359080
C           -4.24569715354301        0.25990262004727       -0.33582302597219
C           -3.48395256077035        1.36691737370499        0.13155385576400
H           -3.86284427802034        2.35222836739463        0.32442045806609
N           -5.56510421940938        0.25687371581832       -0.59231086641702
H           -5.96989265869978       -0.56954844165943       -0.99410596641370
H           -6.08799331651412        1.11306358565016       -0.58281915470198
C           -1.34249481634867       -1.54011507451714       -0.07336338854359
C            0.03932994787152       -1.71765549878439        0.17712433307769
N            0.37264650908143       -3.02542681514182        0.33048790618277
H           -0.33205991787777       -3.73671054963357        0.25877780945415
H            1.31105453293625       -3.29515799869546        0.55769296972275
H           -1.84923628116396       -2.47789989375768       -0.28787623770173
H           -1.50137865484678        2.73911556496758        0.99072631137857
H            0.71196636128501        2.55907939222727        1.03119710825358
C            2.53107505350925        1.01551416927447        0.31362307995417
N            3.08794064045127        2.26083987890426        0.49334994251201
H            2.52463199796676        3.05924299731031        0.25032827597040
H            4.05242008974829        2.33481336644607        0.20736008168523
H            2.76416193683078       -2.23452973391761       -0.21175753453299
