30
 energy: -54.873748997699 gnorm: 0.000813797273 xtb: 6.6.1 (8d0f1dd)
N           -4.01588618744645       -2.02712093371830        0.74480925190211
C           -3.00690172242992       -1.55231587216848        0.46275802770139
C           -1.75005431823147       -0.98575619296878        0.15039834811894
C           -1.84817355667860        0.31645833301825       -0.37428300780371
C           -3.03626801279871        0.86081043570376       -0.84307469204813
C           -2.77873351464909        2.20480357129530       -1.14583843769091
N           -1.55006050848980        2.57447670664326       -0.82104532222087
C           -0.90944230063264        1.48182518505780       -0.35008862767148
C            0.33982297579657        1.68774921561059        0.20159925011462
C            0.62884496798253        3.06771411043459        0.37599483948263
N            0.92720924427602        4.15832927065444        0.57490834302578
C            1.44533146293583        0.81607048875396        0.48766660995395
N            2.50839823207633        1.39594464437308        1.08027016864673
H            2.49690776462155        2.37585376031951        1.31228194567372
H            3.32229121003207        0.83975242425850        1.28627638333310
C            1.60268773026885       -0.50331584684674        0.05286564987630
C            0.70310907942672       -1.64215912406332       -0.07038595799245
C            1.53069095980871       -2.69840876862456       -0.45474635574059
N            2.80236747367253       -2.32434598147726       -0.64629041202812
C            2.88097777251099       -1.04766540345693       -0.29651692133652
N            4.09499749411596       -0.38476707330252       -0.34353568905748
H            4.05998660656682        0.54847697940789       -0.73362309195730
H            4.78943901018231       -0.96039049396095       -0.80302258742828
H            1.24227477378749       -3.70692641037897       -0.69175414646508
C           -0.64931748880245       -1.85642971735815        0.30667734714001
N           -0.92339359827367       -3.08903422134652        0.78784353973943
H           -0.18478502792752       -3.76490430740815        0.86996638288585
H           -1.87651728607453       -3.37756473772874        0.94056500770109
H           -3.45362038036166        2.90821517885173       -1.60005836229948
H           -3.95883981796630        0.33823709922648       -1.00239056155595
