24
 energy: -43.743083640421 gnorm: 0.000598706776 xtb: 6.6.1 (8d0f1dd)
N           -2.43037418793235       -2.94914717221816        0.47862206726516
C           -1.76304817023146       -2.02025529891020        0.38190619268000
C           -0.87057007998242       -0.91460491584022        0.30481628845376
C           -1.56252286772543        0.28151860430572        0.23995922604263
C           -1.08944335576177        1.71090079994987        0.06463888403702
N            0.03287644427369        2.26877875806972        0.39057721837713
C            1.26671079056987        1.97524870196453        0.57053328819313
C            1.98903131633691        0.89654605941344        0.02466062730347
C            3.33158099354636        0.98109519789511       -0.34825877800885
N            3.79727774125860       -0.17653588475882       -0.83293148834433
C            2.81918898914647       -1.05952174818853       -0.71302100068963
C            1.62036161496348       -0.49399926563303       -0.20510599337697
C            0.51465963299645       -1.28266042284534        0.16960845795697
N            0.75989267697853       -2.59617897040408        0.34449604518925
H            0.00384437556099       -3.24653294714505        0.48969961001849
H            1.69201774448982       -2.95017191015207        0.21859897606928
H            2.97189672416281       -2.06298343249028       -1.07132453911075
H            3.95201251404929        1.85756336569486       -0.32530742495210
H            1.84278540256612        2.74334512612680        1.08122915454369
C           -2.22449084465277        2.37584816107836       -0.39873138973046
C           -3.27469323252543        1.46149772370358       -0.31598515556821
N           -2.89172606109078        0.24869955488798        0.07917159801743
H           -4.31366523127902        1.65136287733926       -0.51990715825759
H           -2.28659233551874        3.41202404335665       -0.66196859100861
