30
 energy: -54.081685437439 gnorm: 0.000900253118 xtb: 6.6.1 (8d0f1dd)
N            3.54642323469079        2.35002137371058       -0.64853343783678
C            2.69791978290716        1.60172050781358       -0.44693720549391
C            1.59326247152835        0.72554572640653       -0.27173902567790
C            2.01640805852488       -0.56124673564767       -0.01258752155172
N            3.32094657655229       -0.76348496867992        0.26573055459546
C            3.42047717238952       -1.99168544082617        0.76620825371345
C            2.21121139356475       -2.68943672079884        0.80104625088162
C            1.26554676304454       -1.85541585087058        0.21242412537223
N            0.09293376562484       -2.21723716485996       -0.21380905305418
C           -1.01768261397215       -1.65801515797882       -0.59288634301394
N           -1.81794283542989       -2.44018081296128       -1.36714652246071
H           -2.62632376433274       -2.03145943471090       -1.80226088960012
H           -1.41522591127549       -3.27282060829523       -1.76267690198257
C           -1.57080974151554       -0.43814139320735       -0.11134514572607
C           -2.93248480788127       -0.23499882699563        0.11763384684171
N           -3.20709167062549        1.03610053957564        0.49875730267526
C           -2.06657832561514        1.70006657217820        0.45091053164569
N           -2.04249236021670        3.04236718641966        0.77408226321034
H           -1.25851527788096        3.32996992192039        1.34538051208081
H           -2.93254306302704        3.32992461805170        1.16060421757717
C           -0.94835012281575        0.86994637230326        0.07592916069618
C            0.30668632239842        1.38862047033003       -0.23718318863237
N            0.38028205634028        2.73695870112132       -0.41059794023875
H           -0.46993750637947        3.24684738024254       -0.58662099153248
H            1.25816944120601        3.15305432690206       -0.67405052456753
N           -3.96049917501180       -1.14388142393809        0.00792282301481
H           -4.80095510356581       -0.82108236370340        0.46541935885673
H           -3.71863273369798       -2.09918749568596        0.22745849001043
H            2.05800858104083       -3.69898746973616        1.12392012259002
H            4.38080954822823       -2.35491967997906        1.09048802120588
