32
 energy: -53.523343857048 gnorm: 0.000532076931 xtb: 6.6.1 (8d0f1dd)
N           -2.75325744938083       -3.12735429303685       -0.59950230773201
C           -1.98844455921955       -2.28856052990183       -0.40369497678005
C           -1.03977789867836       -1.26351120777458       -0.20021459544506
C           -1.64395626123175       -0.00253308433498       -0.04197451845039
C           -1.04143746648674        1.37991513664919       -0.11936015179925
N            0.08566512193103        1.75629610761354       -0.65331688616296
C            1.29084515802770        1.28507621468501       -0.80169212423798
N            2.06190446419198        1.95971248721861       -1.69218647276786
H            2.99143840350361        1.63534243160306       -1.88844855351439
H            1.63299978727695        2.65736257405159       -2.27435575794278
C            1.93323100108451        0.30845221322523        0.00916612377434
C            3.25620885521587        0.41323593263761        0.46068456234513
C            3.58907865285785       -0.76483242402993        1.14342355451878
C            2.52392868132494       -1.63854598448922        1.04998186025970
C            1.45019426405083       -1.01081356896584        0.37932377334011
C            0.29231808722158       -1.72119164042256       -0.00745022777771
N            0.46036843459992       -3.06868319669531       -0.13447075899297
H           -0.33967906644780       -3.67856170561472       -0.16629346104138
H            1.35786928228624       -3.46179810366439        0.08344920248048
H            2.49626057618219       -2.60901855590448        1.51468843877850
H            4.52603791935560       -0.95446853734016        1.63580543336348
N            4.11644502796007        1.49714666447065        0.26884805364382
H            4.87162413774816        1.51038498916302        0.94130243184030
H            3.64300824340851        2.39006115160264        0.22707274760883
C           -2.03620458624301        2.27737121326744        0.24982458640732
C           -3.22007652268647        1.56079285982723        0.46874434238775
N           -4.40253941739427        2.07955173367971        0.84479573760751
H           -4.50662995461603        3.07065470378868        0.96607195146320
H           -5.21594195968378        1.49310143039323        0.89730973106329
C           -2.97984855171438        0.18121095808645        0.25091222275869
H           -3.71618100717782       -0.59239365200248        0.36457421469370
H           -1.92035726756917        3.34185599461341        0.30714742930998
