31
 energy: -49.795429504858 gnorm: 0.000680939225 xtb: 6.6.1 (8d0f1dd)
N           -4.81039494477004       -1.43391038809682       -0.49946716614340
C           -4.04494708029153       -0.58182195166128       -0.37106707738029
C           -3.09991869683863        0.42354987859718       -0.19980676084275
C           -3.32591445618994        1.80218970736937       -0.25732218444644
C           -2.13697006515425        2.46575219796241        0.00076370995975
C           -1.09707476873221        1.53879976551788        0.17560325207415
C           -1.71432101440701        0.19599532327173        0.07014947257700
C           -1.25945746847464       -1.06314135394350        0.34701891688402
C            0.00789290447715       -1.67172527062484        0.50224545964006
N           -0.05611094882360       -2.94313346908948        0.98502172356453
H            0.77764457290229       -3.49993264346689        1.03027751880974
H           -0.94401338303657       -3.41008244205797        1.05274237724152
C            1.27161977033974       -1.22422656758583        0.08437649656199
C            2.26077157968786       -2.14611075717883       -0.31934012010147
C            3.39155222354401       -1.46469440926346       -0.71882174147557
C            3.18981211256973       -0.09796278730534       -0.49370080943166
N            4.16269833425165        0.88230015258587       -0.74999187339723
H            4.92734693858174        0.50168483189795       -1.29324032319124
H            3.78969122147648        1.71017251307643       -1.19841946675077
C            1.88507295449049        0.10476366686070       -0.00688712848198
C            1.45430172288777        1.36360465176621        0.48896568745153
N            2.45285336864375        2.19207890518209        0.90134260149317
H            3.39629740316524        1.84932911675742        0.95099651580910
H            2.23991721194998        3.11151182758698        1.24366289943027
C            0.18179196729482        1.94696692642314        0.50539537976575
H            0.21922765052716        3.00620296310445        0.75259711445705
H            4.28168237332696       -1.89959284975396       -1.13738870891090
H            2.12647890458903       -3.20724603670965       -0.42934968218494
H           -2.06768446582543       -1.79019131468428        0.41078119997437
H           -2.01327315163144        3.53299061955588        0.03172906006719
H           -4.27656542733054        2.26221170790536       -0.46248735441903
