29
 energy: -57.538533654924 gnorm: 0.000370198382 xtb: 6.6.1 (8d0f1dd)
N           -6.68158194145679        0.00172849542594       -0.78714491423858
C           -5.55422198439483        0.00128388096627       -0.57851212891149
C           -4.17294193142440        0.00101167054669       -0.32356133986041
C           -3.37281418369956        1.14115699357853       -0.16757716792811
C           -2.04516554478820        0.74651976694980        0.03826891539710
C           -2.04558879229698       -0.74568208770314        0.03836372573178
C           -1.06875283895344       -1.68943767066690        0.28580042688807
C            0.33141279403115       -1.68710789528738        0.34916076278363
C            0.80241416438739       -2.97955800802604        0.73038859024088
N            1.06579564183191       -4.01459938863109        1.14444048377573
C            1.32171578398897       -0.74244569319859        0.06135971481657
C            2.65560736302450       -1.13746893845243       -0.20507231585268
C            3.15624670264755       -2.43371438441559       -0.40888485298957
N            3.63888516766703       -3.44681604747913       -0.64642847127991
C            3.44610575337025       -0.00066799016345       -0.40300423383092
C            2.65627350381141        1.13628101292513       -0.20373570591365
C            3.15735719850301        2.43248636511868       -0.40650252240145
N            3.64224103345722        3.44527686307125       -0.64077777485075
C            1.32211010120719        0.74164062774839        0.06220390443799
C            0.33224568332982        1.68659037761500        0.35022120807427
C            0.80375772660588        2.97846912599374        0.73269922745411
N            1.06679315391726        4.01351401479855        1.14702907407898
C           -1.06795131881764        1.68970014914040        0.28609342921813
H           -1.47892398834476        2.68942115033529        0.40767339577782
H            4.48534646222529       -0.00081315004930       -0.67597549547543
H           -1.48024878266612       -2.68892658662122        0.40749617107757
C           -3.37340855706925       -1.13959174322920       -0.16728764803589
H           -3.72231042704500       -2.15423315522767       -0.21325264947750
H           -3.72110524894891        2.15599958993744       -0.21375581390633
