26
 energy: -47.209493461865 gnorm: 0.000425201718 xtb: 6.6.1 (8d0f1dd)
N            5.36217445348716        0.73755501597176       -0.46115187870908
C            4.23219587340477        0.69544418866790       -0.25563267524024
C            2.85669344735266        0.58897858379601       -0.03229991779530
C            1.97325033127433        1.58595936703319        0.30707032806649
C            0.65519054142077        1.04320030250329        0.39542315756720
C           -0.39322215690930        1.87283048252069        0.74263126694627
C           -1.78983896066979        1.77490342190113        0.74087353081205
C           -2.65575431672721        0.80304055333584        0.30269326553259
N           -3.95272166514108        1.08473137510454        0.05586997592091
C           -4.38351095561392        0.08078899094513       -0.69157380538298
N           -3.51560862689662       -0.90199531776677       -0.96571726078712
C           -2.41156139967896       -0.56362085897915       -0.29806992942622
N           -1.42688789528753       -1.37314022260613       -0.10665752180523
C           -0.21051724652963       -1.40030565289637        0.33215827404104
N            0.18827107894560       -2.57847149770965        0.87309194522130
H           -0.52075799135499       -3.26621200154840        1.06819516218441
H            1.06519798743225       -2.63090618644968        1.36190764915202
C            0.79111123104766       -0.39078130752267        0.14447997920956
C            2.12942772385133       -0.65520919099228       -0.10412404760487
N            2.72885461631859       -1.86186947759421       -0.34606648805037
H            3.64736056757549       -1.81461464873161       -0.76143880630997
H            2.14015242950209       -2.59910422376698       -0.70163162324922
H           -5.39061855427842        0.05027255767346       -1.06795696287950
H           -2.30488424400735        2.69342098474194        1.00062356164646
H           -0.05221564552778        2.87043389039964        1.00408687436800
H            2.21817998150927        2.62295111626722        0.44110433467215
