30
 energy: -53.301439341414 gnorm: 0.000581759226 xtb: 6.6.1 (8d0f1dd)
N           -5.06851701263460       -0.06802979166701        0.85699823135842
C           -3.79272165521901        0.02292494535401        0.45904023235994
N           -3.08196786621945       -1.08768990127374        0.20816378007046
C           -1.86570433435843       -0.68706869405275       -0.18077010044508
N           -0.94288747612472       -1.54660748962486       -0.41835866882087
C            0.37104358882688       -1.60321623510394       -0.50319518602471
N            0.81695123111121       -2.79435322110281       -1.01266481964161
H            1.76678051424729       -2.84982838616317       -1.33886336053472
H            0.12162755040290       -3.37178576385921       -1.45568785329873
C            1.32242753275018       -0.72504949187224        0.04224977572775
C            2.61615193287444       -1.10476867793372        0.48884767895830
N            3.37511463302608       -0.05679459808430        0.80855725044758
C            2.64772180521950        1.04082657047527        0.51781474763484
N            3.21550966606984        2.29293961986210        0.66169302198874
H            4.04995258181312        2.25841601341777        1.23045566875708
H            2.56970864300291        3.01749870080497        0.94137945384023
C            1.35353538500812        0.73189809656125        0.07312756053483
C            0.45307272223401        1.65839529107772       -0.52389046661490
N           -0.84946298254883        1.66539586784790       -0.50932065742439
C           -1.81571031000935        0.84669257757264       -0.19216326273814
C           -3.06077653385486        1.21914792371163        0.26823405642983
H           -3.42432278856376        2.21535296782303        0.42259039892119
N            1.00501647856075        2.79460538630385       -1.05211487101829
H            1.98190430105897        2.78590639308816       -1.28942248053779
H            0.38773701099154        3.39622634352681       -1.57075493684733
N            3.10461836649134       -2.38765328257791        0.61302262812222
H            2.40874391003747       -3.08393209903503        0.84117972809277
H            3.92638676894011       -2.42471766888506        1.19958957221292
H           -5.47536168933883       -0.98037446627868        0.96054193058219
H           -5.59886543659445        0.75296098848708        1.08282063930743
