25
 energy: -48.282259961895 gnorm: 0.000631896894 xtb: 6.6.1 (8d0f1dd)
N           -5.74565083542017       -0.78206961789844       -0.54770706283084
C           -4.62229107659525       -0.63086336869248       -0.36809066557889
C           -3.25342819343585       -0.43014521718415       -0.14312696957122
C           -2.65452602158561        0.83402334361842        0.14565394267218
C           -1.30096059754060        0.65599871918084        0.29259986435868
C           -0.38917943877010        1.68298598038063        0.72332309688104
N            0.77073326376035        1.91062078414925        0.19280811554424
C            1.79389258623625        1.30019146610765       -0.28450549811899
N            2.79272739906221        1.93175587476006       -0.91726275182118
C            3.77390899458995        1.03907616624326       -0.96806753586707
N            3.51820734519413       -0.17812443085227       -0.47721314638902
C            2.24655424397329       -0.13326590168904       -0.08051408136732
C            1.51613755241049       -1.28775274556135        0.18881014026362
C            2.31093092342932       -2.46692677370920        0.25927097750678
N            2.90903381714698       -3.43870453551970        0.35851338930433
C            0.13445474723530       -1.53808472871931        0.21028423281240
C           -1.00948492868484       -0.76818643705861        0.11290705958544
C           -2.26902540009602       -1.39490964157821       -0.11115756649051
H           -2.40947527128831       -2.44662725443618       -0.27557039009492
H           -0.08202634742558       -2.60413118648278        0.22164900692267
H            4.73347383552816        1.28060775296394       -1.38764467100230
N           -0.82032071858317        2.55892700716532        1.64483418594948
H           -0.23384901741259        3.33727211104879        1.89720608408356
H           -1.75716429211653        2.50383746131845        2.00268137514844
H           -3.19181693441311        1.76321805554526        0.20192963549807
