26
 energy: -47.200787019856 gnorm: 0.000832526542 xtb: 6.6.1 (8d0f1dd)
N           -1.53068953038534       -3.44191176473187       -0.03028556413829
C           -1.04056655072566       -2.40392512220599       -0.07069608431646
C           -0.37155182603824       -1.15488541066543       -0.15978827715845
C           -1.27146083476790       -0.09736883191333       -0.17266435730285
N           -2.55042516454502       -0.35269088190802        0.11592919402833
C           -3.15988832650848        0.83248347752327        0.29663718049634
C           -2.29217787671518        1.92946152224087        0.06707210677229
C           -1.08213809222301        1.39400646270721       -0.32495895458171
N           -0.11426085285793        2.08077908846540       -0.88472051381274
C            1.15758114048241        1.98213763959931       -1.01017664949470
C            2.07241170094488        1.17624491279080       -0.30034072238505
C            3.37092311946556        1.58253995645083        0.01312632818443
N            4.05518357929334        0.63836925126045        0.67120217531534
C            3.27170235347503       -0.42820749649185        0.72062477957070
C            1.98911788585668       -0.19734548144154        0.16225070496824
C            1.05406927779885       -1.23169863261184       -0.04695934383520
N            1.55502524100391       -2.48424340717475       -0.04961026182184
H            2.54072505230118       -2.62429041781084        0.08919282303043
H            0.94081104852980       -3.28285955691887       -0.05901611265295
H            3.61558416733698       -1.31161611690711        1.23115600434047
H            3.80451139945070        2.54821701312969       -0.17154194059222
H            1.59097956494116        2.72597409867106       -1.67621062622160
H           -2.55132255453150        2.96728931995842        0.11445905162154
N           -4.44606497147181        0.88542215518899        0.64629281080493
H           -4.89851391025107        1.76224110320517        0.83123862329285
H           -4.95547905486042        0.02296541638753        0.73298556308860
