28
 energy: -52.231813774864 gnorm: 0.000740472168 xtb: 6.6.1 (8d0f1dd)
N           -2.07081410548553       -4.46740431166659        0.44178936925929
C           -2.05841315090386       -3.32749794648729        0.29862648442295
C           -2.01460106465296       -1.93936366984165        0.13614081594177
C           -3.05956578077209       -1.11689929748245       -0.15073888151776
C           -2.56514661298810        0.23061107735348       -0.23205266410495
C           -3.42540820028400        1.27893982902846       -0.58776282415315
N           -4.20318217936934        2.04274391780179       -0.94885617793591
C           -1.19412121097709        0.25390665274587        0.00014429028578
C           -0.77666411188915       -1.14642927074505        0.17346372113912
C            0.39767434326683       -1.82189912189451        0.24647439886643
C            1.77474543110861       -1.47892416632001        0.09785457116894
C            2.43299071372828       -0.30727642908952       -0.02088920178042
C            2.06801603758723        1.11375438346188        0.07481721548691
C            3.27739062742191        1.78721331128967        0.02564528487740
N            4.35800446429004        0.98047266292132       -0.12866199483815
C            3.90640311865044       -0.25134610796659       -0.16748430916647
N            4.72571105350675       -1.30028489728547       -0.30554451664972
H            4.38609039080857       -2.23731651159862       -0.42649214106730
H            5.70617501325965       -1.11095354069001       -0.42093167780717
H            3.42251494518554        2.85062220507402        0.08160518545443
C            0.85837068154548        1.80903161851253        0.20906251280084
C           -0.47815236227135        1.47862065425808        0.16235906014523
C           -1.29392095377797        2.62621728203808        0.36228406755498
N           -1.86428828854290        3.59349533248115        0.59597101675902
H            1.02715623100814        2.87435889731127        0.34478691350590
H            2.40203032502500       -2.36477464695408        0.06793030810292
H            0.26272452949009       -2.89272162540863        0.37698306668203
H           -4.08727341816826       -1.39652857244720       -0.29297057963295
