32
 energy: -59.934885432431 gnorm: 0.000735420536 xtb: 6.6.1 (8d0f1dd)
N           -6.74639712126942       -0.56413352189841       -0.53530607080390
C           -5.62126709399697       -0.46834299207191       -0.32825541414598
C           -4.25105752742060       -0.33792381467466       -0.06641397703997
C           -3.31978358577385       -1.37212446263867        0.01925174793449
C           -2.04269334712286       -0.82662328622823        0.23218774585095
C           -2.21951799475203        0.62461479120592        0.35373524701642
C           -1.31850849678271        1.65431067143729        0.71067035941752
N           -1.87290686973496        2.78712535647800        1.19622584333848
H           -2.86119790750841        2.84528281924960        1.36149102516637
H           -1.30597826928238        3.59680438956004        1.38147484541135
C            0.08112341451446        1.74357701824417        0.54700450347637
C            1.11683214790587        0.92991359661355        0.15970238854140
C            2.39182861561942        1.52348195101552       -0.09400319070195
C            2.67436023351234        2.88714818825506       -0.04158254723534
N            2.91540173627113        4.01135695706739        0.00693752441385
C            3.31275082525000        0.52753873193076       -0.43610906508393
C            2.63316892966463       -0.73479316049917       -0.35125659128583
C            3.31392903911033       -1.90938565144591       -0.68432508918880
N            3.99774061169232       -2.76739580504249       -1.02798396138997
C            1.30066707552370       -0.52725053474074        0.01115637750027
C            0.41768815835801       -1.59839209759169        0.26156545735965
C            1.03693778208483       -2.87035613634820        0.41810341149901
N            1.45565380500154       -3.91766866325905        0.62437578619955
C           -0.96322581414741       -1.70017634506092        0.33735117412387
H           -1.29045929616452       -2.73410037748938        0.42014289520727
N            4.59315048989413        0.68264748397089       -0.78031848214232
H            5.15050257564148       -0.12258934033412       -1.01383934612774
H            5.00328166585639        1.60014177023910       -0.81955965678981
H            0.42714085521726        2.76368571368265        0.70830541297024
C           -3.58329129035611        0.87446160366763        0.17066754824660
H           -4.07257725295958        1.83111385564690        0.13908630303921
H           -3.53498197084485       -2.41693257993970       -0.10389201487682
