28
 energy: -52.247450557354 gnorm: 0.000709930088 xtb: 6.6.1 (8d0f1dd)
N           -6.40815333243037       -0.06157513160509       -0.01899368095334
C           -5.26073070082759       -0.05467498134100       -0.01675076602640
C           -3.85812021621707       -0.04236771943222       -0.01048221145399
C           -3.05033287565834        1.11572112105883       -0.00775013099446
C           -1.70835268435077        0.74700100515144       -0.00239433896417
C           -1.67867226406057       -0.73120425481718       -0.00164798398225
C           -0.67992083754840       -1.67936929957985        0.00252610618285
C            0.71976581393830       -1.66124684173809        0.00778834204612
C            1.28015477151695       -2.97332106526496        0.01168038203940
N            1.65936376730380       -4.05452283535965        0.01152546537499
C            1.70178020040211       -0.67148475641774        0.01121312357420
N            2.96618607731466       -1.11057159840938        0.01639227979156
C            3.77106446536570       -0.03975169500548        0.01909004106757
C            3.02348146561963        1.17202599522468        0.01566468488285
C            1.69057590411200        0.82161390121136        0.01063876073519
C            0.65186085223679        1.78731884584469        0.00620139452941
C            1.14055023176052        3.12396023813060        0.00684691704342
N            1.50953852140494        4.20983105973062        0.00887590363433
C           -0.72838638422104        1.74283767065583        0.00090001091237
H           -1.17274366153479        2.73620282866624       -0.00131781715505
H            3.43771331955973        2.16076580823916        0.01688908687045
N            5.09554129705139       -0.16899907264851        0.02432906217513
H            5.48782993160769       -1.09553988448633        0.02622261491646
H            5.69675102906982        0.63584622060550        0.02638013241834
H           -1.07069117998329       -2.69477003911104        0.00147786125617
C           -3.02835779168757       -1.15528244277061       -0.00667136902404
H           -3.35256797596322       -2.17945822569638       -0.00759753879694
H           -3.42275506908102        2.12373596246459       -0.00975609290017
