26
 energy: -43.196552908585 gnorm: 0.000575812092 xtb: 6.6.1 (8d0f1dd)
N           -4.04652217558467       -2.13763597667560        0.04415738221432
C           -3.48378237439209       -1.13371719645251        0.01920127562590
C           -2.77133547910591        0.06332829338134       -0.01899612800294
C           -3.30013175566065        1.34279649932756       -0.01356602368987
C           -2.24929679309146        2.26492289215676       -0.07838207295592
C           -1.02591660853635        1.60396076988170       -0.11489190207091
C            0.17282075885411        2.31948997516475       -0.16076273562583
C            1.50387820236253        1.97768319386183       -0.12536423216853
C            2.22632613375608        0.78617912242417       -0.04086304490324
C            3.62154128164015        0.83749251434322        0.09648748663229
N            4.18389894557076       -0.36991914215404        0.16908269742782
C            3.20613608917966       -1.25485642748881        0.03881992120160
C            1.93032268021003       -0.65486388779902       -0.09235537167412
C            0.75837780743267       -1.39737717529800       -0.25278572045036
N            0.89426780491732       -2.72455522821836       -0.47242114636679
H            1.80440784571647       -3.13936341458869       -0.55281326691156
H            0.08645604499374       -3.31980150087086       -0.53622775430804
C           -0.61345899007232       -1.00189240069214       -0.16921261658950
C           -1.32951084777427        0.15113238572589       -0.08945707599823
H           -1.26397315168331       -1.87628834788888       -0.17465067850110
H            3.45030627868103       -2.30133110805493        0.09379939668259
H            4.22487535723801        1.72405626014223        0.16585808092708
H            2.16825988233537        2.83703482360723       -0.13648026617406
H           -0.00222230958674        3.39018115867972       -0.20376366545158
H           -2.36905242101236        3.33254385097242       -0.08931521381820
H           -4.34715200358588        1.58376165001415        0.03165472094766
