29
 energy: -50.381930634518 gnorm: 0.000646033400 xtb: 6.6.1 (8d0f1dd)
N           -4.71560063946484       -1.76412900403556        0.80415607512151
C           -3.84673575222001       -1.05065384624968        0.54966280950948
C           -2.83548196039159       -0.15566477634552        0.23573605054531
C           -3.03458975893383        1.12560536415032       -0.35496314706427
N           -1.88574588742840        1.78476691882850       -0.56583548907328
C           -0.90043410922934        1.00507631441908       -0.10459052491327
N            0.27733772937207        1.49822726655805        0.08084768892808
C            1.50298140968840        1.14075850541708        0.32995482775986
N            2.25072138243791        2.10010568359292        0.93863313079873
H            1.76352545432980        2.89876417274544        1.30985606575791
H            3.15003364976963        1.85694378735927        1.31536573677249
C            2.17638116545038       -0.03144666350947       -0.11127552456285
C            1.68437719776287       -1.40711212447500       -0.06238379616006
C            2.80603577966361       -2.23031252320823       -0.38251766424883
C            3.89067174663732       -1.44702379466034       -0.65929564232889
C            3.52500765746731       -0.08780006868254       -0.46544682034896
N            4.40066854563967        0.97196457870652       -0.59558296514581
H            5.21031312515689        0.77012081480428       -1.16353557218964
H            3.97311213349591        1.86100335059145       -0.81044568166155
H            4.87202391257170       -1.77902320448119       -0.94659320523000
H            2.77057684909143       -3.30332094137734       -0.42400783135408
C            0.48956809922782       -1.98704291983140        0.31743496549871
C           -0.81338266537156       -1.53771115975606        0.54167512674914
C           -1.43801777355461       -0.32563957112665        0.33123262365356
H           -1.51108182963733       -2.33103915634592        0.79601920236917
H            0.56976316765934       -3.06761022645738        0.39767029339136
N           -4.21561624342791        1.65663117196484       -0.68622560875166
H           -4.23718210320125        2.56318732984836       -1.11800695319004
H           -5.06855056086339        1.16425818395644       -0.48772041093091
