31
 energy: -60.197607424209 gnorm: 0.000579589891 xtb: 6.6.1 (8d0f1dd)
N           -5.88517001125332       -1.54655630316889        1.01847972125297
C           -4.83785989873024       -1.21161937046997        0.68827768880547
C           -3.56568227754678       -0.80539157986673        0.26733562572646
C           -2.50315005328388       -1.65717618809152       -0.07920453045988
C           -1.37870721620845       -0.88463515320212       -0.36351297496379
C           -1.77959764253416        0.51035232801533       -0.24471536611485
C           -3.13883161065910        0.51392926776804        0.10143300966419
H           -3.73707522556192        1.37949723451043        0.32037246254093
C           -1.10266741743981        1.72511590908149       -0.51450029185797
N           -1.84492032883044        2.72477023323248       -1.02140291956508
H           -1.47869403126691        3.66338653815994       -1.06799250052955
H           -2.81857216204975        2.57100147194184       -1.22223366596294
C            0.22612371882558        2.05486550642225       -0.12708953953833
C            0.52552193002396        3.44415132168878       -0.14071902665737
N            0.71843284031033        4.57249486369847       -0.21324467372934
C            1.25269406817238        1.29316289445754        0.41758692946057
N            2.21247631836965        1.94312341303035        1.10323996785411
C            3.16739658454160        1.07959508718303        1.39194497490567
C            2.92959037772614       -0.18866063188600        0.81806468979153
C            3.74373436842838       -1.31404548030616        0.98469496078744
N            4.42110893819167       -2.22125683455144        1.17416372631435
C            1.66186299228648       -0.11961356499359        0.21379345922089
C            1.14107580228028       -1.12030725471374       -0.62028224831017
C            2.11688909593794       -1.97578847955441       -1.18990405180199
N            2.86761663217752       -2.64659433906146       -1.74224026931512
C           -0.19740299183760       -1.47977917554473       -0.89598447622027
N           -0.38947121211716       -2.58332070761815       -1.64300759388965
H           -1.32362991165953       -2.90743596226777       -1.82569569115535
H            0.39204974415329       -3.14565064968824       -1.94217931687554
H            4.00070144674030        1.35899751917913        2.01017126535695
H           -2.54521436998543       -2.73018570818274       -0.03468992243397
