24
 energy: -44.545847602249 gnorm: 0.000813823636 xtb: 6.6.1 (8d0f1dd)
N           -5.85353307621087       -0.31358852224113        0.53667777866000
C           -4.72377515776659       -0.18965723584844        0.37806940371351
C           -3.34260629746769       -0.03008760095793        0.19330751428859
C           -2.69549185313261        1.19349973201392       -0.11722219219772
C           -1.33432972679742        0.96792774344532       -0.21537913025405
C           -0.42005045979706        1.98082441347135       -0.56931897351603
N            0.81630255432152        2.09861903736428       -0.25412312434338
C            1.87900676271239        1.42419266571031        0.01455374857776
C            3.08375848551122        1.95514034765372        0.50521312570172
C            4.04078478998205        0.96824674383679        0.32842144023363
N            3.52897988806649       -0.18868500337090       -0.11907167219801
C            2.22066698549687       -0.02796084461894       -0.25490441411231
C            1.37589701596656       -1.13790380891295       -0.27860354328002
C            2.08024749480768       -2.37689617613394       -0.31224478177104
N            2.58841168713327       -3.40182153628566       -0.36367870052383
C           -0.00901869751478       -1.30295561843280       -0.11961577180552
C           -1.10529965942140       -0.47006526725135        0.01022702606348
C           -2.38688261568488       -1.03295655268034        0.23941678542572
H           -2.57784857601863       -2.07283387772776        0.42875900731502
H           -0.28006276657817       -2.35355952811841       -0.03984982859536
H            5.09895936237598        1.04871363768552        0.50157437872742
H            3.23866437750465        2.96306576124461        0.83241011181740
H           -0.84023523492206        2.85708870614274       -1.05875456639226
H           -3.18895103376636        2.14018801511137       -0.23596419633313
