29
 energy: -51.167396287373 gnorm: 0.000957450840 xtb: 6.6.1 (8d0f1dd)
N            6.10059657150658        0.98718391234276       -0.53179211618410
C            4.98278062483849        0.81020823234648       -0.32697189826857
C            3.62993423853987        0.54611442822811       -0.10540042661394
C            2.63563245913881        1.46746400417679        0.26384011855858
C            1.40820894912621        0.81733347962760        0.33909329828676
C            0.23730666046949        1.48075782347899        0.71174264352650
N           -1.00159078720263        1.22555770399741        0.44829634358799
C           -1.78641479195070        0.23212060184778        0.18217035198380
C           -1.63022603621243       -1.23610668549111        0.46805857463950
C           -2.90470962762313       -1.79496856718946        0.37057559716362
C           -3.80310478659100       -0.82963946776901       -0.10186027423178
N           -5.10101820187002       -1.00735706037177       -0.38606792941905
H           -5.64705132748286       -0.23518347996269       -0.72848224088359
H           -5.55493720688271       -1.88019626812435       -0.18404895882886
C           -3.10900132086046        0.40673608686383       -0.26251015660808
C           -3.70874286005264        1.58165387930842       -0.70542331395575
N           -4.26355311811672        2.51505961789612       -1.08739754944775
H           -3.14792881909419       -2.82537032837071        0.55303056381865
C           -0.47689105725039       -2.00196153688301        0.52744061497628
C            0.87157652084940       -1.74098227755581        0.29172385467859
C            1.64511565763107       -0.61437063919229        0.07320036850155
C            3.04104424554073       -0.72947158428820       -0.20956236160275
N            3.73094841389804       -1.86885957946009       -0.48676430986626
H            3.23495007077919       -2.67704433639282       -0.82020053997373
H            4.67846514147509       -1.76089537155876       -0.80993051522843
H            1.45472608636430       -2.65717863144008        0.25192471590874
H           -0.69269937057640       -3.05980727430406        0.64757494879680
H            0.37761201518441        2.45083579385978        1.18687463680047
H            2.79704311472500        2.51785721037999        0.42005468568368
