29
 energy: -50.375366002179 gnorm: 0.000902379153 xtb: 6.6.1 (8d0f1dd)
N            5.68298213180384        0.06311343797810        0.80844752861895
C            4.56946986755360       -0.00401767460373        0.52347958709589
C            3.21862682712641       -0.04749819869344        0.18595055467429
C            2.36305481656955       -1.18227871422403        0.26855969485163
C            1.08741425538590       -0.82007187770905       -0.09286105859556
C            0.01044517183866       -1.76423278761958       -0.24433158675639
N           -1.22868233764767       -1.63014851721140        0.09871599640695
C           -2.10918051671510       -0.67210958764707        0.24263563284106
C           -3.30698697289702       -0.78914434775741        0.92153886536632
C           -4.09133070353645        0.31630481047364        0.52300612225928
N           -3.44910881373474        1.13943362749455       -0.32734566521579
C           -2.20860010612352        0.65111949000972       -0.47264855087256
C           -1.24256078747364        1.44819979824924       -1.05075888448257
C            0.15190463555845        1.43812290253945       -0.99724528942798
C            1.10471199703875        0.59096914880816       -0.46961128395920
C            2.47221726329445        1.02227666280598       -0.30200147158964
N            2.97312649322680        2.26362438830708       -0.57728936055364
H            3.88498820444319        2.46337642148058       -0.19743412026841
H            2.33522448308675        3.04164740840478       -0.60263862576709
H            0.57778516425100        2.35427972252099       -1.39776655480480
H           -1.66972003508783        2.35000382564777       -1.47555949193669
N           -5.35044885216069        0.58024563266186        0.89827143663427
H           -5.81169490284083        0.01829723866876        1.58963209059639
H           -5.80299700597066        1.39671851533236        0.52794971534454
H           -3.61535539693567       -1.59138984914184        1.56051544652877
N            0.36175676445174       -3.00032129719206       -0.67328647575466
H           -0.33905222028303       -3.71855148788326       -0.71965287799096
H            1.31671786093928       -3.21328711126315       -0.89399385613949
H            2.68344836933950       -2.14962179383880        0.61224938539633
