29
 energy: -50.361292501903 gnorm: 0.000965146001 xtb: 6.6.1 (8d0f1dd)
N            1.42136575467913        3.44537430540355        0.44847556667521
C            1.03159650591766        2.36951123231987        0.33713627599415
C            0.49287486122775        1.05964927502372        0.24955750305242
C            1.51017763436507        0.11839694992646        0.16072085667299
C            1.50402817909170       -1.38953602099755        0.13025741769594
N            0.63221993980650       -2.25104086783249        0.58745533532383
C           -0.63685356855661       -2.24742246770928        0.83545069638176
C           -1.69195192775874       -1.47060572760681        0.34572986624397
C           -2.97604134745868       -2.02606808070594        0.25338106154505
C           -3.83287320380231       -1.11729234910205       -0.34518962288153
C           -3.13332341398983        0.06729830428719       -0.56866229210705
N           -3.70838762048735        1.21154759048506       -1.12677834438073
H           -3.12054411749916        1.68312306781554       -1.80300559581168
H           -4.62513318498997        1.02010383100339       -1.51067318449706
C           -1.78472072289646       -0.08782147359119       -0.13220164670195
C           -0.93352629431335        1.00966765097188        0.09139207580368
N           -1.52294834864374        2.23053773961790        0.07685905062412
H           -2.52820549150865        2.28763225331046        0.10926860117825
H           -0.97512161437485        3.05074737584870        0.27693399238448
H           -4.86771418236199       -1.27989279336393       -0.58784670225870
H           -3.22662430394337       -3.02906180677666        0.54566557973996
H           -0.94809330955207       -3.12395866839845        1.40371108379255
C            2.77909333189410       -1.72434027559049       -0.29520870001778
C            3.50570610612200       -0.51636052400279       -0.36160885064679
N            2.75359476404146        0.55927735301986       -0.05994883343705
N            4.79714294001738       -0.36564134793663       -0.67681267908407
H            5.19652074920559        0.55504944935062       -0.62943967468142
H            5.36266272231980       -1.15181549158449       -0.93882499813163
H            3.16429401345003       -2.71096518588621       -0.45288772337042
