29
 energy: -50.353213196966 gnorm: 0.000854129908 xtb: 6.6.1 (8d0f1dd)
N            3.09697540032188        2.74596062514292       -0.40279177638305
C            2.35787081672803        1.87861626957257       -0.24485037259390
C            1.38157401973877        0.86586549146432       -0.10197844854814
C            1.96974762771857       -0.39026842009451        0.20230700364875
N            3.21402902800801       -0.38595308307427        0.62537159829191
C            3.64592917751719       -1.68279440893981        0.67535403411403
C            2.71428236311669       -2.55383687020639        0.19797304018060
C            1.54194316571482       -1.78850141410487       -0.09551869651457
C            0.41644406041124       -2.35529181868145       -0.62098293521652
C           -0.92121661596832       -1.92268693162334       -0.72181983431990
C           -1.55817621472880       -0.77495374210513       -0.34946368200913
C           -1.16007647677468        0.57280455677849        0.01487044693251
C           -2.34435880302815        1.19952292239456        0.40619536298277
N           -3.43930351303854        0.38189639132997        0.32577476837131
C           -3.01812029820428       -0.75745848687916       -0.16269778991275
N           -3.86898180418864       -1.77722374719209       -0.40582254645319
H           -4.79718500215017       -1.67625887803365       -0.03137811582799
H           -3.51630571705958       -2.70943961388288       -0.52824879070933
N           -2.53772593082352        2.48536574331319        0.85041136389663
H           -3.45444753811365        2.61301280546058        1.25453608160687
H           -1.78810942952030        2.88481942067497        1.39538756156992
C            0.05604904743043        1.29657188604545       -0.22502889064673
N           -0.12605480223600        2.60132085218747       -0.53833506965949
H           -1.05194167869050        2.95370190760681       -0.70687693640566
H            0.67345492199199        3.18494260279613       -0.72499415319735
H           -1.58383479338934       -2.70937540745993       -1.07040434440885
H            0.54976670139690       -3.39348722173273       -0.91285602042337
H            2.79208541129953       -3.62118174710404        0.12326248848958
H            4.62906786101922       -1.89309256195282        1.05629294854569
