29
 energy: -49.575441067670 gnorm: 0.000704390716 xtb: 6.6.1 (8d0f1dd)
N            5.24600626989198       -0.04125413890705       -0.15951674096570
C            3.91177519811277        0.01596113913451       -0.06961857557703
N            3.25937025949366        1.19128255654974        0.00575205608769
C            1.96350201829551        0.86157196231863        0.09136747777449
C            1.02549025859245        1.86393140367058        0.22655012578077
C           -0.36388555738481        1.87691110602721        0.26650769515356
C           -1.36777663197714        0.94471434212953        0.13619248318888
C           -2.73539971142383        1.37422426978346        0.05346502975974
N           -3.57467195324189        0.36744384700751       -0.16140050204060
C           -2.83579970297865       -0.75776186491715       -0.17470086167696
N           -3.49551520664872       -1.96682175650943       -0.37946682862544
H           -4.47507493924386       -1.78558806041441       -0.56506903424513
H           -3.08401363627852       -2.53835510830678       -1.10737727019292
C           -1.46057572364420       -0.52485646730029        0.01999393097999
C           -0.52651647720263       -1.55899874290437        0.21981097015518
N           -1.05350465165540       -2.79963682389775        0.41116231185761
H           -2.02970682676448       -2.88131853381025        0.64866855328668
H           -0.43299786202710       -3.54789103806896        0.66923402601631
C            0.88230581060922       -1.56188681458240        0.18695981223186
C            1.88660544019411       -0.63312976294033        0.06950055331435
N            3.15186070218087       -1.08656116650642       -0.02218917473079
H            1.30225681558781       -2.56262868167380        0.24906174095394
N           -3.22336638759330        2.64081201022857        0.18460992693857
H           -4.18136544058317        2.74312146031839       -0.10912175862913
H           -2.61615517718002        3.41342033281247       -0.03071180263044
H           -0.74962990092798        2.88513132864163        0.39138450013830
H            1.49116728775236        2.84110989906582        0.28714877581998
H            5.68828116612693       -0.93201307954022       -0.29151152464925
H            5.76089234308714        0.81261081173488       -0.27132271253311
