30
 energy: -54.888986762058 gnorm: 0.000423734599 xtb: 6.6.1 (8d0f1dd)
N            1.94444620104287        3.23040415649731       -0.32646727796346
C            1.43026830469672        2.20607064724055       -0.25665834544853
C            0.66218404499177        1.01498681747280       -0.18371757474815
C           -0.70158754887852        1.33394911354407        0.07547851908299
C           -1.86043021185142        0.63052157061906        0.22305587582709
C           -2.28075032451525       -0.72807270111927       -0.13404308613337
C           -1.52777157178980       -1.78726143710478       -0.62440691647278
N           -0.29364843975966       -2.10255155634307       -0.41000507889980
C            0.84517555002599       -1.58375297148045       -0.05558027611745
C            1.91030700022679       -2.36270533765450        0.38313895033752
C            3.08766955845251       -1.60302546802009        0.32170023936717
N            4.32810581122456       -2.02039384618821        0.60019585357942
H            5.10301088839315       -1.39075555810524        0.47240855275948
H            4.49559360848557       -2.95291002815216        0.93328504209943
C            2.76831510499692       -0.27352517355644       -0.08967959480522
C            3.76307169497552        0.68880586424059       -0.22623719802189
N            4.69122097677177        1.36402244850113       -0.32980356563006
C            1.36849201329619       -0.17843735299650       -0.22257658135053
H            1.85012943778262       -3.40557944802560        0.62659003461794
H           -2.06424435318493       -2.54284315139865       -1.19900351460736
C           -3.68961638653627       -0.69823197457234       -0.06499130526351
N           -4.16905656054532        0.49973436858165        0.34562489855352
C           -3.12161756645837        1.29478431586368        0.51153543955025
N           -3.27842947537383        2.54912485953998        0.96644188610858
H           -2.51252793758802        3.19872038126202        0.96061905836499
H           -4.21649300376006        2.90530071155280        1.02052734458762
N           -4.55265005754819       -1.69435216839613       -0.35417466244399
H           -5.51138915305863       -1.55406157287720       -0.08716125387343
H           -4.21604050857152       -2.63466757488920       -0.45304984981250
H           -0.81804414363413        2.40599173886773        0.22100424655862
