28
 energy: -46.637615967385 gnorm: 0.000805767222 xtb: 6.6.1 (8d0f1dd)
N            4.63416934294758        2.02035109171009       -0.58434143718233
C            3.92609298257796        1.13612976002137       -0.38117859474329
C            3.06739740144241        0.06812601347244       -0.13851253164061
C            3.44528389087796       -1.25103027649884        0.22315605103184
N            2.41951917852857       -2.04466296781033        0.39155648586717
C            1.28276618217983       -1.30684000469380        0.14853490583371
C            0.12096253169439       -2.01222989697454        0.12880002609351
C           -1.26198485424563       -1.75135800525435       -0.10778358186343
N           -1.95961302853990       -2.89774003041835       -0.32396866330062
H           -1.48151878962919       -3.78038324384689       -0.34434625657852
H           -2.92870122148982       -2.87176432076924       -0.57694193874334
C           -1.99169869394135       -0.56405770041061       -0.03251371682123
C           -3.39722513928094       -0.57208253575677        0.07623985256468
C           -3.87664179441587        0.71894775793209        0.19141643940204
C           -2.79998509894290        1.60658385348501        0.11089211766516
N           -2.93244441321086        2.97432199629648        0.12745766903269
H           -3.82306912848991        3.31183222475756        0.45588006147049
H           -2.14565710883524        3.51597402172163        0.44741425916686
C           -1.59626115363338        0.86792461197626       -0.04035594972810
C           -0.41567921856307        1.55077317273199       -0.30068532023967
C            0.92756654788615        1.23922886603397       -0.40558643326735
C            1.66071957305491        0.08568007195551       -0.16446664334156
H            1.56017983386444        2.08803381240958       -0.64905796855178
H           -0.58995925332621        2.61232946021415       -0.44976507554711
H           -4.90580464228139        1.00049386527148        0.32241524528461
H           -4.02806681226246       -1.43910613552810        0.14824515098727
H            0.31766714442721       -3.06592712196633        0.31210717735036
H            4.45256674241046       -1.60691046735964        0.35463676440032
