25
 energy: -42.680320216114 gnorm: 0.000811393377 xtb: 6.6.1 (8d0f1dd)
N           -4.85469782153768       -0.45485445330723        0.45461427375571
C           -3.56791855114692       -0.20538328794263        0.18239805890793
N           -2.63892904836396       -1.15702419007607        0.34839660918331
C           -1.47048736347770       -0.62207164492074       -0.03868623013658
N           -0.45919067211913       -1.38703282371292       -0.24044822075585
C            0.82210466005279       -1.33691462314270       -0.46461454484447
C            1.75644684002024       -0.40968602043469       -0.05132193742009
C            1.63622292442489        1.04147944188481        0.15439395281004
C            2.95978230291399        1.45253991052130        0.38065595577493
N            3.84141694720673        0.45135861654866        0.36866633335398
C            3.15061554479660       -0.66285162671496        0.09072582345226
N            3.78511529966004       -1.85828054775282       -0.03067302683370
H            3.24519015654445       -2.70166267336459        0.05699239417297
H            4.72884727971514       -1.88315594183223        0.31846838802416
H            3.29403504974506        2.45981928026117        0.55380157889105
C            0.62401630270385        1.96785656188666       -0.08980272621280
C           -0.72830970901779        1.89644954780035       -0.36198408529348
C           -1.65705794894456        0.85373497163705       -0.33591804165149
C           -3.02476290278465        1.03102675206102       -0.25473616603926
H           -3.57789932790437        1.93709898822677       -0.40977673503331
H           -1.20344326477296        2.86471659726642       -0.49257058037146
H            0.99565944685389        2.98800009533389       -0.03852629991257
H            1.19759643682417       -2.23852607393330       -0.94871035564625
H           -5.56909142828632        0.21195650689359        0.22558117109324
H           -5.10810125900514       -1.38209603658633        0.74744086743148
