25
 energy: -39.478077871088 gnorm: 0.000415173384 xtb: 6.6.1 (8d0f1dd)
N           -5.67270858256805        0.00030902020168       -0.00685799731433
C           -4.52451949829973        0.00025335507648       -0.00587903727914
C           -3.12296232281506        0.00018055477271       -0.00455180144793
C           -2.30700693730296       -1.13832115009121       -0.00366675367514
C           -0.96390736998299       -0.74550784878115       -0.00236975078329
C            0.03284679527279       -1.70992409698851       -0.00128647680785
C            1.42093730900762       -1.71029360618380        0.00011086186998
C            2.41640675943049       -0.74840686931125        0.00100430389530
C            3.76453490927813       -1.13123522507909        0.00238603067072
C            4.57340706409822       -0.00019405907143        0.00305459713830
C            3.76464469938085        1.13092628348250        0.00212374594338
C            2.41647992696963        0.74822927223006        0.00083657035492
C            1.42110373337126        1.71021307532783       -0.00023847276549
C            0.03301385927540        1.70997834803506       -0.00159435189583
C           -0.96383463937835        0.74565866014929       -0.00249020050146
C           -2.30689493824285        1.13860290868411       -0.00384231357125
H           -2.66023454550881        2.15319026506580       -0.00427044690342
H           -0.38561425965936        2.71289188413170       -0.00209122268274
H            1.83800940438868        2.71395597005290        0.00006957921103
H            4.11091984516913        2.14818820239343        0.00234965881436
H            5.64884706182382       -0.00024603757314        0.00411789322972
H            4.11071049353438       -2.14853094063082        0.00284575497702
H            1.83774492245680       -2.71407714539553        0.00063508904790
H           -0.38587841622329       -2.71279718958776       -0.00161418272014
H           -2.66044503277577       -2.15287430530985       -0.00393650910461
