31
 energy: -54.611575849218 gnorm: 0.000231242955 xtb: 6.6.1 (8d0f1dd)
N            6.06641633958469        0.57171074322248        0.80833142486597
C            4.95715309552946        0.47494245181164        0.51847744498108
C            3.61416554814994        0.31731304742804        0.17711464899093
C            2.63784838555816        1.31212316150058        0.13458327326520
C            1.39434151959270        0.74502856916410       -0.19482504676187
C            1.63446713554458       -0.68874107425314       -0.38828032799049
C            0.78832575206657       -1.72891442184566       -0.80312170910694
N           -0.45410484164159       -1.98627175408367       -0.57557800668747
C           -1.51241744092315       -1.33298693452532       -0.15368203628978
C           -2.62693930513007       -1.98411269149350        0.34701662272183
C           -3.70306025338843       -1.07505408078568        0.43340327042444
N           -4.94370670245763       -1.35833468747978        0.85785496702130
H           -5.18065445344288       -2.28591412740360        1.16036594166382
H           -5.65775568167553       -0.65106638507093        0.83123630497971
C           -3.26202434538313        0.19358532557444       -0.00329060160441
C           -4.04683480900827        1.33728278973923       -0.05906037305650
N           -4.70957344313417        2.27988112176811       -0.10232252425637
C           -1.87095184075683        0.11380552695565       -0.29161277130928
C           -1.11560791662727        1.23647083671243       -0.48418857128532
C            0.26892958390334        1.54500938973185       -0.48204082210426
N            0.51322025020100        2.86091073465575       -0.71143688097400
H            1.45212199749392        3.21314675612300       -0.72608271583696
H           -0.24717357278278        3.51091211166222       -0.80450343903809
H           -1.72893065868057        2.13424874477553       -0.54532535488228
H           -2.67704556073090       -3.02924155553156        0.58412689033473
H            1.29152682147174       -2.55680850858141       -1.30559415265343
C            3.01126139877417       -0.91119346285287       -0.19405190758920
N            3.69500853764184       -2.08552842518960       -0.32698456915297
H            3.17658872914801       -2.94652480857366       -0.30764568365445
H            4.61688184578634       -2.11730055852124        0.07728075547180
H            2.83279971511276        2.33617106676403        0.39864900471158
