27
 energy: -46.924381658399 gnorm: 0.000966505584 xtb: 6.6.1 (8d0f1dd)
N           -4.61746777123570       -1.76399013922363       -0.97480230905605
C           -3.91686898682110       -0.94038872206793       -0.57883481002345
C           -3.05295645649748        0.04647435602681       -0.11285843900877
C           -3.40100928686466        1.15962799838070        0.66032024341377
C           -2.26903588818613        1.91582673614454        0.94601149707099
C           -1.16228687604544        1.33294481420695        0.32468120377001
N           -0.03251865962582        1.95428359283191        0.14827576984768
C            1.18738353064406        1.71601936497055       -0.22244823693284
N            1.84327562771798        2.75490071350461       -0.78372680497000
H            2.81260909678349        2.67432135386472       -1.03007106524143
H            1.35738829032935        3.62345906047286       -0.92464598514472
C            1.95284995150429        0.53259771695516        0.03507985669848
C            3.30682230617867        0.49632274833828        0.29472588005066
N            3.80173394913701       -0.76534225714079        0.39005375713424
C            2.79970012480192       -1.57874521553667        0.13446189115567
N            2.96611012220209       -2.92071998657527        0.10198336374955
H            3.84590954480361       -3.26007336672638        0.45310470278853
H            2.16954884853160       -3.52605686519090        0.18782100581251
C            1.54388489130669       -0.85861985044318       -0.09800678755755
C            0.39637606663808       -1.49599028348116       -0.48315854028637
C           -0.95130692508881       -1.10036311541632       -0.61411979768478
C           -1.63386919101350        0.03470229398884       -0.26859968516078
H           -1.60483759454753       -1.91212394369801       -0.92355805505750
H            0.52861555590902       -2.55641823188069       -0.67805478842969
H            3.96465629213610        1.32773119605200        0.47577622147809
H           -2.24684206441447        2.83916498952605        1.49140684815048
H           -4.40305254738470        1.39083177041753        0.97729056103000
