31
 energy: -54.598149516415 gnorm: 0.000863555100 xtb: 6.6.1 (8d0f1dd)
N           -5.05424379985132       -0.64407075659893        0.65834211513756
C           -4.09650808197834       -0.04473521180411        0.44335790360313
C           -3.00004249183692        0.80265671295960        0.26616912442644
C           -3.14032000483815        2.23954941306776        0.44573565412290
C           -1.93601011084201        2.80639321616873        0.27768231281232
C           -0.94197156174808        1.76844022491800        0.00763906611795
C            0.33239478549669        2.15217132166774       -0.21679601493913
C            1.62124731125802        1.52667567034851       -0.39441545103459
N            2.58585722111327        2.42446971266394       -0.78053695752448
H            2.27497824853657        3.30917937291995       -1.14749392763979
H            3.42886825199417        2.04912422911352       -1.18631070069315
C            2.01790660128391        0.25017799093542       -0.06514178817058
C            1.31006567134783       -1.02946798618931        0.03316524712705
C            2.33370080057069       -1.97915916946105        0.22901320072408
N            3.56554616920186       -1.41395418685626        0.32686038370035
C            3.40560991196081       -0.12136303627477        0.13610444147421
N            4.48836203883662        0.71907412262399        0.17756083140611
H            4.33597116625537        1.61421169723315        0.62118081802449
H            5.31662921371619        0.23847234645749        0.50327464892690
N            2.22898139661955       -3.32542348855688        0.31823845646539
H            1.34400616770954       -3.74480814866484        0.54210417747683
H            3.06015135280566       -3.81163161491339        0.60730984053108
C           -0.00054433115166       -1.44431766398324       -0.20904473699865
C           -1.23961784828284       -0.83770603230748       -0.26852613798290
C           -2.25650412539798       -1.76030612532018       -0.61467192079096
N           -2.99212961168886       -2.57211331845896       -0.96164036972382
C           -1.67848715560712        0.49220666106124        0.00024431897957
H           -0.06618065678160       -2.51834342014595       -0.36574380332139
H            0.44489992175263        3.23535430254156       -0.21791145794585
H           -1.69365337596074        3.85047291534396        0.34866868423067
H           -4.07408086909192        2.71907353480764        0.67494113298118
