29
 energy: -51.151516303621 gnorm: 0.000645256771 xtb: 6.6.1 (8d0f1dd)
N           -4.65884394753333       -1.87961250819122       -1.07977143381973
C           -3.91299564550389       -1.04364659060668       -0.82119976150552
C           -3.01091782094300       -0.02236708824040       -0.52535668155008
C           -3.23477366719330        1.34454730898689       -0.60699561890088
C           -2.08768769712961        2.04827330157953       -0.20214129027872
C           -1.07748954188568        1.15080070496054        0.10475393528255
C           -1.69615876564902       -0.21313951673575        0.02318552702593
N           -1.32772634015252       -1.31845051547329        0.54603557403284
C           -0.24715051600508       -1.88581083318744        1.01239883146261
C            1.04485906724634       -1.74170335172238        0.54806917287370
C            1.94434027030831       -2.83816899642910        0.51830686803090
C            3.06196812496633       -2.47780596533834       -0.18716110295128
C            2.95823562246618       -1.11007761983693       -0.53938858960725
N            3.96080311298869       -0.43079414169492       -1.20762455979810
H            3.65583812649900        0.31801066149391       -1.81293354941617
H            4.63663785589735       -1.03947537610459       -1.64654596123548
C            1.72728805144314       -0.60148703602893       -0.08209627009206
C            1.49021390116195        0.78546375086642        0.12007757100396
N            2.60354923251576        1.56656239199111        0.09050057821800
H            3.50788919806772        1.13305033742772        0.16978090024745
H            2.52420913514739        2.54984777402040        0.29271311710425
C            0.27280628560230        1.50140699837842        0.29450580346534
C            0.43445313477746        2.88896870361711        0.51686502923039
N            0.57881672855809        4.00796401657014        0.74152502247331
H            3.90118360515620       -3.10501749008181       -0.42731815872192
H            1.72048244689949       -3.81221437291897        0.90979734659174
H           -0.45580241390099       -2.72791634946519        1.66712872507224
H           -1.99584674072419        3.11835095263308       -0.20154034457328
H           -4.15069642468122        1.79842387043042       -0.94191997166495
