28
 energy: -50.649053901673 gnorm: 0.000983046028 xtb: 6.6.1 (8d0f1dd)
N           -4.57502081909196       -1.87514913916646       -0.77680991125062
C           -3.91039934335146       -0.99802475923121       -0.44012926183306
C           -3.06557181858480        0.03693992510886       -0.05374947165042
C           -3.37643479905021        1.17100055430442        0.69111080567939
N           -2.33040932893265        1.97836952962322        0.90934619538221
C           -1.27809394648382        1.42795519510325        0.30364961403882
N           -0.20135058715880        2.10689137420381        0.08096654447244
C            1.02438603767196        1.89794371466893       -0.29977015158373
N            1.61784585375284        2.91145402780510       -0.96079135897752
H            1.11205672160026        3.77388614103985       -1.07653937294894
H            2.60853367031870        2.89032293229374       -1.12359282710494
C            1.83916179688878        0.77578886323534        0.04556966665342
C            3.17685103627929        0.86314581612959        0.39247042483405
N            3.73254207735253       -0.34248310304495        0.62285991975925
C            2.79961377258597       -1.24336681265971        0.36651810919760
N            3.08139154267765       -2.59817538413818        0.47989030838122
H            4.01646728855725       -2.72135232628981        0.84967504696640
H            2.40144014405850       -3.11781534512353        1.02133589410859
C            1.54492624078213       -0.64856541574495       -0.00772080215783
C            0.46368405620009       -1.36921741637293       -0.52704112858550
N            0.70190747066011       -2.65601421879975       -0.87827866694808
H           -0.02907836360134       -3.20507271220750       -1.29656475141137
H            1.65600641547023       -2.97775535035827       -0.94036176427054
C           -0.91345868266372       -1.00202830204014       -0.63885630066982
C           -1.64772143190254        0.07656472054807       -0.25345370815837
H           -1.53119402544432       -1.83758224830943       -0.96555625921354
H            3.75613528372073        1.75402171363974        0.55524363429358
H           -4.34531896261332        1.43387223188426        1.07898757569855
