35
 energy: -67.888295590015 gnorm: 0.000681605823 xtb: 6.6.1 (8d0f1dd)
N            6.40717636622002        1.14566178270963        0.97731559445092
C            5.31747844695799        1.04207129525229        0.62858570087072
C            3.99304253396998        0.84799294332770        0.22451376153573
C            3.08141554612106        1.79816855376288       -0.18773850688916
C            1.82553174105987        1.17470725879855       -0.40179152014508
C            2.02693267422686       -0.26631503989263       -0.21244282667855
C            1.21183221454384       -1.34852826400547       -0.64703503217566
N            1.88381567049929       -2.42488057123158       -1.11188633006852
H            2.86903454499819       -2.35501479060223       -1.30110228292145
H            1.38026031074143       -3.23384965083865       -1.43954481837707
C           -0.19246381403776       -1.48999170616287       -0.55035072526827
C           -0.67847009001467       -2.74276757035551       -0.99664807386813
N           -1.03462540885149       -3.73187675919491       -1.46188172322274
C           -1.20388317751975       -0.67537701088020        0.00095897422412
C           -2.36893891622985       -1.24055034546918        0.53693448488283
C           -2.61206693074916       -2.57151975186943        0.88678515054101
N           -2.88224153101371       -3.62289412286889        1.26517017531692
C           -3.30145615730973       -0.20478129080845        0.83768160634504
N           -4.48807882474716       -0.36636815050115        1.41888350479898
H           -5.07484804905355        0.43233322970766        1.59899902017492
H           -4.80273507868057       -1.28671136832104        1.68009760306597
C           -2.72767471661312        1.02235369022265        0.42326740552756
C           -3.38572839460502        2.23671353240160        0.63788583866978
N           -4.01357291645649        3.16124482692858        0.90706671778570
C           -1.42894872594720        0.78306858199524       -0.06932754693015
C           -0.64434389126752        1.80300038685560       -0.61913058012723
C           -1.34565012835268        2.97100554040925       -1.02410687688980
N           -1.84771621791925        3.90906674109930       -1.45185928938872
C            0.74279880116073        1.96012670669502       -0.73544109259433
H            1.02184695683079        2.96981591864037       -1.02518745646062
C            3.35983725638598       -0.43754311554281        0.17815843692895
N            4.02745812695985       -1.60014021263249        0.47259828494633
H            4.90876745001740       -1.47162615435579        0.94904387043380
H            3.47851384974405       -2.37089416410992        0.82247476437078
H            3.26227160592923        2.85401591463752       -0.25955114456531
