31
 energy: -54.617358646361 gnorm: 0.000828280092 xtb: 6.6.1 (8d0f1dd)
N           -3.05232174564037       -3.52538130152292       -0.07257189968575
C           -2.64287406611713       -2.44893432283836       -0.04711135192344
C           -2.17618848186861       -1.13891981636565       -0.00972335801688
C           -3.00059553684504        0.00253448031055       -0.12955131668401
C           -2.17447996269136        1.14240996713203       -0.00649746086437
C           -2.63920181513993        2.45322429137171       -0.04013423078387
N           -3.04706742078001        3.53033523878932       -0.06277681098808
C           -0.82308888277119        0.74014319209272        0.15275567595975
C           -0.82419739020147       -0.73912835541228        0.15067643020772
C            0.14351806189328       -1.69031179832843        0.38737328988754
C            1.54714526922638       -1.71039383189829        0.41941335292879
N            2.08266028682984       -2.89424869564719        0.80034328908876
H            1.49390460972547       -3.69694237936062        0.94218263121270
H            3.07853262899624       -3.02192933309630        0.78157208323504
C            2.47239514122141       -0.72654174971186       -0.00134004981287
C            3.74148861453525       -1.06798008183602       -0.50457251257908
N            4.46001468727092       -0.00204414196686       -0.84567788352012
C            3.74308257404509        1.06400265845291       -0.50157760415970
C            2.47347957547586        0.72304984553372        0.00069735121764
C            1.54970350446937        1.70709821898269        0.42422134582182
N            2.08699015816318        2.88907290135898        0.80848129700388
H            3.08305225202155        3.01531755945695        0.79005553563385
H            1.49943649492426        3.69224642847830        0.95257195515970
C            0.14604838632043        1.68920695986580        0.39212949763673
H           -0.28171055461007        2.67997368958129        0.53428237973119
H            4.12484750774706        2.04694533773518       -0.71558251798876
H            4.12178391640059       -2.05088732911131       -0.72133867050206
H           -0.28572304475559       -2.68083308562872        0.52674095606583
N           -4.32675629304970        0.00379358710855       -0.31819690066506
H           -4.82797119021972       -0.86483012301557       -0.38737114738392
H           -4.82666945897522        0.87335835778977       -0.38492157943259
