33
 energy: -58.846040981870 gnorm: 0.000595590466 xtb: 6.6.1 (8d0f1dd)
N            4.30857644210738        3.57319355623494       -0.31222127477281
C            3.89407631215259        2.50424146353975       -0.21620647723663
C            3.38604758312410        1.20933113816135       -0.10523539383926
C            4.15507853366803        0.06044317070289        0.17191876312678
C            3.31856713926364       -1.03733325763130        0.20815619639692
C            3.68535330455948       -2.36351181864835        0.42828277166884
N            3.94738733382305       -3.47154856938066        0.59729600160808
C            1.96009854752438       -0.60922082116495       -0.05549165806854
C            2.02219329552676        0.85524976444883       -0.22101399264240
C            1.04836180951912        1.81622880142362       -0.42870822631840
C           -0.34025763851104        1.81399244339161       -0.39517193051710
C           -1.34628682826056        0.88254357571398       -0.20667081498333
C           -2.68566878632022        1.33531907706723       -0.06541846272137
C           -3.53983560762952        0.21950783300660        0.01660580629643
C           -4.91622549586219        0.25763597490333        0.23407058155045
N           -6.04876130198848        0.27889521037261        0.43595934277000
C           -2.77066187498182       -0.95451364671752       -0.11004810631654
N           -3.33025372965643       -2.21867725738570       -0.06090644296946
H           -2.80351437940767       -2.90912255754069        0.45618708350803
H           -4.30642447684679       -2.20153177112334        0.20639739938712
C           -1.40670739897599       -0.60464580930223       -0.24868936083602
C           -0.42023562794442       -1.56052820228504       -0.49567022396812
N           -0.83472213324845       -2.77923080674540       -0.92734599585482
H           -0.14797296084465       -3.48135877313868       -1.14638782335637
H           -1.75685055987726       -2.87707781903469       -1.32020954601052
C            0.98717927053016       -1.54037016407590       -0.22183253234373
H            1.37330562505091       -2.55595984145793       -0.14329715821672
N           -3.13400159591121        2.61972764166639       -0.03033044183385
H           -2.49555767098850        3.35912069391368        0.20680609578422
H           -4.09215844075284        2.75687721197263        0.24700437160089
H           -0.73586515461846        2.81827422831491       -0.51013148090447
H            1.47384797184080        2.80489733507928       -0.57336154751833
H            5.21913606073464        0.05043954591473        0.32743385553059
