28
 energy: -45.849800842461 gnorm: 0.000754999088 xtb: 6.6.1 (8d0f1dd)
N           -4.98381944128025       -0.29066101241939       -0.07037752849099
C           -3.64735051252553       -0.21318641541907       -0.01227536129044
N           -2.89312906826320       -1.29359778644493        0.28893226985337
C           -1.63352951636593       -0.85054186267731        0.26147495171488
C           -0.60028179521610       -1.73700725619613        0.51807025142814
C            0.77533454673270       -1.64681587988605        0.41653129167404
C            1.70575520317048       -0.67555891632739        0.08291110287660
C            3.07072205115609       -1.06069659300463       -0.07734583062808
C            3.83828440718494        0.07058406218917       -0.32331539412856
C            3.00625956975715        1.18216284744982       -0.30160798859069
C            1.67644357795796        0.79538066676045       -0.07826481671308
C            0.64158945159532        1.74696269063623       -0.00846997516434
N            1.03459121363267        3.05445429584420        0.04121847435102
H            1.98056280081475        3.28859917762437        0.27377215425725
H            0.33531173800648        3.76887716265972        0.13977008958674
C           -0.75964549899845        1.61905218024357       -0.09294963791528
C           -1.68097000019287        0.60423989331362       -0.05146397343688
N           -2.98391825649648        0.92761440852104       -0.21177697785273
H           -1.26354931634643        2.57462663502353       -0.21591082915768
H            3.36030231195635        2.17637381360063       -0.50713485113806
H            4.89831694951976        0.08145406959118       -0.50386474600199
N            3.58672971753704       -2.33802764222418        0.02936669589229
H            4.51717561633945       -2.43455547030578       -0.34780344332457
H            2.97478848424389       -3.09528149077709       -0.23365438481009
H            1.24973377122267       -2.60164232639656        0.62623792923085
H           -0.97769476873980       -2.71761485091131        0.78563599139309
H           -5.41595504113193       -1.19397437729534       -0.00613698639254
H           -5.50169791777074        0.50417718042776       -0.39664416132311
