35
 energy: -56.671319815203 gnorm: 0.000807218981 xtb: 6.6.1 (8d0f1dd)
N           -5.41752268952399        0.00257959467272        1.09279539499174
C           -4.33571852884043        0.00093687214125        0.69359093179239
C           -3.02216398738108        0.00131748746510        0.24264602903226
C           -2.23056380034109        1.14345765725717        0.00731646875453
N           -2.72782972262488        2.44400652844329        0.12734765883146
H           -3.61619766587328        2.45862635524079        0.61335214131309
H           -2.07189877718695        3.09775050906907        0.53458847757774
C           -0.92645572115731        0.73522464923348       -0.31814280007823
C           -0.92948658247097       -0.73559723073392       -0.32564970504839
C           -2.23700960589553       -1.14182595660565       -0.00754759704916
N           -2.74139106992539       -2.43982823143224        0.09663831857358
H           -2.08794345541643       -3.10432720990407        0.48990056877545
H           -3.62928845283248       -2.45724111564218        0.58329249552814
C            0.06574467449129       -1.67085394235494       -0.70207431055539
N           -0.41373958128842       -2.86002129344996       -1.19236454100936
H           -1.35445725794850       -2.88463985448681       -1.54730487100450
H            0.24417074084636       -3.52168311875835       -1.56641378175881
C            1.44545036481810       -1.66494114550973       -0.48018348861116
C            2.37363732021999       -0.74803932537332       -0.01790976547116
C            2.37731600943975        0.74593153917101       -0.03320417397496
C            1.44937273088896        1.65950261491232       -0.50329188944263
C            0.06716408376013        1.66868642903244       -0.70672729406887
N           -0.41545585741757        2.85412641585144       -1.19809746914901
H           -1.36624982568591        2.88906554654275       -1.52351969935387
H            0.23573545392062        3.52226754063791       -1.57138930036694
H            1.89353782563612        2.63864522033657       -0.67456771473069
C            3.65185901849986        1.13913064047329        0.36518599895706
C            4.41680861697337        0.00094117332390        0.66544426695861
N            5.70635029938223        0.00194207894048        1.08521418216475
H            6.09965170290752       -0.85341998233955        1.43742103236814
H            6.10540394189703        0.86261761761571        1.41723185146581
C            3.64552648979996       -1.13933779226733        0.39165437406002
H            3.97925846186210       -2.15482003101847        0.50290495632675
H            3.99055263866465        2.15517835582363        0.45428188984608
H            1.88681612940128       -2.64850481740815       -0.63268193344534
