31
 energy: -49.800264554900 gnorm: 0.000866665227 xtb: 6.6.1 (8d0f1dd)
N           -1.96978954441690       -3.44361726740518       -0.53609576094623
C           -1.36048601164068       -2.48435684779984       -0.34996160491163
C           -0.58460513925235       -1.32271800693403       -0.14556451402373
C           -1.38455155967942       -0.16689813631658        0.05323164723494
C           -1.12169531008473        1.26260055806690       -0.28684850661481
C           -0.01330802748561        1.90875029634869       -0.78910878851994
C            1.37007727817075        1.67773493355850       -0.74390778506841
N            2.12613532433740        2.59304725767502       -1.41262534970877
H            3.12531612397181        2.55904850317105       -1.31726826814736
H            1.70720631493201        3.43656156373192       -1.76372383870663
C            2.08689239304580        0.73463005105598        0.02231834693235
C            3.35979045345981        1.03550763609777        0.55772720653284
C            3.83719036885330       -0.06576842414944        1.23889509148377
C            2.92938476065949       -1.11170641439819        1.06889098489282
C            1.82060768244871       -0.64983732888978        0.35364374436252
C            0.79694285216451       -1.54653969689297       -0.07304564701526
N            1.22660692811539       -2.81107642033917       -0.32874844863666
H            2.19682536674283       -3.02876703141334       -0.18843094463788
H            0.56453970478525       -3.56115553115551       -0.43805179812374
H            3.03367332737138       -2.08929642553067        1.50732046196253
H            4.75012027692021       -0.11401185354386        1.80480071835671
H            3.83392725774311        2.00182802618365        0.54299774579697
H           -0.25612313606923        2.88236302157097       -1.21056061255264
C           -2.34773162268648        1.93157112477746       -0.14376936579181
C           -3.30755754952503        1.03733604897005        0.31381887235552
C           -2.71326295002651       -0.25298738726890        0.39600578812474
H           -3.23556984852428       -1.14715087363069        0.68195483955056
N           -4.59971485618267        1.30547702788214        0.59944473885284
H           -5.16761403426341        0.59743900566830        1.02888559564321
H           -4.91898182202695        2.25717611099164        0.62502051029357
H           -2.49790556835707        2.98202860021797       -0.31119764946995
