31
 energy: -53.799126756451 gnorm: 0.000629017767 xtb: 6.6.1 (8d0f1dd)
N            3.45903119552707        2.54510176577736       -0.81475586936315
C            2.62273120991306        1.80450406268664       -0.53264444853785
C            1.57559385382892        0.91983960849550       -0.20987958581817
C            0.28977313520827        1.44896067825185       -0.30228976200536
N            0.18435532034071        2.73685996446422       -0.71807048070524
H           -0.72252684595070        3.15338392203665       -0.83475700961422
H            1.01011001443141        3.25070429452876       -0.97684986681537
C           -0.96214385825268        0.84517581810479        0.06541806798638
C           -1.52611742659320       -0.45253552941094       -0.24637047009014
C           -2.93415438556757       -0.30044657052968        0.08131557883088
N           -3.20247123435684        0.88679477092713        0.57692379266907
C           -2.04514438229569        1.60044421733182        0.52231217931087
N           -2.07266810329706        2.92508317893465        0.90913888050033
H           -1.24660055438632        3.25446834573291        1.38855570345944
H           -2.93160721659011        3.15301476437768        1.38913475896925
N           -3.90791894446171       -1.26120302219131       -0.00253299420412
H           -3.59742347778543       -2.21221225438956        0.14104086366683
H           -4.73022297563817       -1.00975438690417        0.52893040568978
C           -0.99420635035171       -1.65281070195180       -0.69128387325913
N           -1.85348373930305       -2.55562002378657       -1.27156377187230
H           -2.66079636441250       -2.18811494278754       -1.74809023915915
H           -1.44529113190259       -3.38903023648607       -1.66234561054945
C            0.28910882946556       -2.19435614265578       -0.38720582363298
C            1.44349935912339       -1.70119406537505        0.12485994114400
N            2.37540584392741       -2.64302960448762        0.53368660108589
C            3.44581429475310       -1.98573351478071        0.87857580832955
C            3.32106906063246       -0.58103734802636        0.68447213520575
C            2.04279965440012       -0.35434773508067        0.23500903878568
H            4.08124465064657        0.15221124246518        0.87358792274574
H            4.30811534743840       -2.49935422359085        1.26794821031102
H            0.32498034990713       -3.27598126628033       -0.49029536236354
