33
 energy: -62.062726926831 gnorm: 0.000979763913 xtb: 6.6.1 (8d0f1dd)
N           -1.78546467487654       -3.98668451948220        0.74556772254721
C           -1.32805414563855       -2.95713711842872        0.51364674506382
C           -0.70431286618268       -1.70904407029255        0.28243471316696
C           -1.60347853016557       -0.75040850088806       -0.17121579190239
N           -2.82818112805842       -1.13682872882483       -0.53455766498099
C           -3.51040176284470        0.00184012084088       -0.75366101064927
N           -2.83347185852254        1.13838141158656       -0.50606916777080
C           -1.60632666765322        0.74938960763245       -0.15505867959898
C           -0.70683065441968        1.70488851149226        0.30617380060101
C           -1.33605002366627        2.94354928697379        0.57024956697167
N           -1.79731316546389        3.96421302105938        0.83192463749641
C            0.71379219311184        1.70654052126187        0.42976460872161
N            1.24541994035886        2.85850697977464        0.89742285179327
H            0.64414681400583        3.62002627268230        1.16612277946536
H            2.23662890765457        2.92084924651113        1.05790047158654
C            1.62937040936400        0.73334082503342       -0.00611837453735
C            1.63224144645460       -0.72999000920748        0.00600618801203
C            2.95332708629518       -1.07102212255581       -0.38753099747554
N            3.69664833204856       -0.00020619653719       -0.67734967590140
C            2.94797382282475        1.07243984490550       -0.40768061434907
N            3.49290081075059        2.33156810326994       -0.58162510104741
H            2.87412675222532        3.01274576306419       -1.00167676648948
H            4.38097395944105        2.26913493396523       -1.06230124733142
N            3.50430239968615       -2.32996661362801       -0.53926875855205
H            4.38925760075154       -2.27236791720342       -1.02604589503372
H            2.88687166340284       -3.02404216464051       -0.93971830228563
C            0.71394293693223       -1.70268075941753        0.43505531678238
N            1.24197203820628       -2.84988869314934        0.91933189569451
H            2.22908529621460       -2.90389352341398        1.10547543240597
H            0.63813793614702       -3.61142018143619        1.18241332591595
N           -4.76848483878888        0.00473140956730       -1.18471862207250
H           -5.24529410872031        0.88142673910167       -1.29612164800342
H           -5.24178152837490       -0.87060482461877       -1.31882732294276
