26
 energy: -47.996155340560 gnorm: 0.000713353030 xtb: 6.6.1 (8d0f1dd)
N           -0.10446975070863       -4.44376210305358       -0.17328548454003
C           -0.00368523580754       -3.30296982447505       -0.11429200022870
C            0.16520201094800       -1.89174040433085       -0.06922052764290
C            1.48942424639140       -1.52004094196308        0.19428991648187
C            2.16292328062204       -0.31769543698695        0.32535950714732
C            1.88867345291302        1.06680188335353       -0.05252031253517
C            3.06845448094404        1.75196344056196        0.20473402599228
N            4.02661264849997        0.94549243724282        0.70352653033255
C            3.52242555098930       -0.26934184676824        0.74918318155246
H            4.10624735730124       -1.10030279650109        1.09978882848389
H            3.25587906403831        2.80469405531453        0.09279537489656
C            0.73885692221912        1.58764904496383       -0.70078540765664
N           -0.49010243728677        1.28831186615798       -0.36890243862147
C           -1.23909144103053        0.31727438757124       -0.01272782117068
C           -2.61028475951742        0.50536578569722        0.35753624880771
C           -3.20187865389769        1.74918400453615        0.58407221791812
N           -3.67973708943512        2.77763440329296        0.77000052909023
C           -3.23640324766987       -0.73474340751116        0.30236217062870
C           -2.29958648568207       -1.73545672849472        0.00019335437066
C           -1.03823156783336       -1.17009801311898       -0.12404667397966
H           -2.51994244145266       -2.78461169034283       -0.06269524595684
H           -4.28517709908965       -0.90017211556961        0.47338938486241
N            0.88951919332934        2.56038643264840       -1.61380984818245
H            1.80356101950990        2.93059790044326       -1.80457095092033
H            0.07592261269047        3.01767837098438       -1.99079134246731
H            2.13150059071651       -2.37732379655317        0.38376280733729
