30
 energy: -50.089282763146 gnorm: 0.000868925022 xtb: 6.6.1 (8d0f1dd)
N            4.25167132496513        2.23551589140147        0.03932535102539
C            3.55634029292717        1.31583055379490        0.03912471205055
C            2.74089205998189        0.19505515594620        0.03030046097978
C            3.18987658107490       -1.15192276010125        0.06664858060464
N            2.17201606642294       -2.01834179023184        0.03307556920786
C            1.02898243447204       -1.30664532809393       -0.01506688667510
C           -0.14810561415892       -2.01994052672764       -0.09113791456435
C           -1.49623300654231       -1.67962427173384       -0.12487015097853
C           -2.25255296836490       -0.53098536819642       -0.05267352086283
C           -3.68287187311214       -0.65603281725268        0.00869458216694
C           -4.23541825384048        0.59536519129035        0.21534483676438
C           -3.20834787513113        1.53801805652120        0.22651334923945
C           -1.96822545080340        0.91973983917690        0.04660870525749
C           -0.77756499043418        1.66947324755373       -0.07778069347944
N           -0.93543471364579        3.02039472449687       -0.17681011025199
H           -0.12930582307216        3.61261107620587       -0.26308142595583
H           -1.84215724725894        3.43083490510498       -0.28484775083947
C            0.58046334104657        1.29924127065637       -0.08213189904902
C            1.32704669360557        0.14481504451492       -0.01322013630892
H            1.22958248338836        2.17292875712391       -0.13017956105263
H           -3.39418785525287        2.58417934396303        0.39115183235491
H           -5.28167692002401        0.80770685490036        0.34180687027387
N           -4.40597550683772       -1.82906789850250       -0.01866290201672
H           -5.39846024589749       -1.69877382233663       -0.13785941735913
H           -4.03239829837546       -2.58717740396628       -0.56807156874665
H           -2.11542188024946       -2.57057112633880       -0.17279144745247
H            0.04606024233888       -3.08651233703656       -0.11409638627985
N            4.46521334312627       -1.55970377299484        0.12106137098608
H            4.66079353543500       -2.54381870283448        0.15067689700484
H            5.21314810221810       -0.89041966460682        0.14784993275885
