30
 energy: -50.876514665789 gnorm: 0.000730964020 xtb: 6.6.1 (8d0f1dd)
N            3.25360614020588        3.39861599672322       -0.03311548238887
C            2.61471786003287        2.44547050480680       -0.06286776126191
C            1.78363574515715        1.29352573806154       -0.07524244330329
C            0.45630667989340        1.60939687963422        0.09081446930176
C           -0.76776295497437        0.91827295277453        0.09644835250393
C           -1.93403701310090        1.66914442367033        0.07273072378239
C           -3.05569229177460        0.81513573298449        0.07985260793190
C           -4.39944740558178        1.18271920285717       -0.01218554518494
N           -5.51899352379737        1.43215618027208       -0.09944384631468
C           -2.60103621455889       -0.50249177252039        0.17127604547540
N           -3.44323227622577       -1.60962391343266        0.21033450980128
H           -3.15939722685262       -2.37764704379541       -0.38482447177363
H           -4.40884689303770       -1.35054688229651        0.04470041867239
C           -1.16965636802027       -0.49662761209213        0.20866844573430
C           -0.43562715348076       -1.64676383911473        0.48627805306615
N           -1.11808903635699       -2.71249617884154        0.98214550967326
H           -2.04282981391562       -2.56573352277855        1.35685326725775
H           -0.61202525907581       -3.53111569861704        1.27345139613569
C            0.93523454007794       -1.96938043554193        0.20323765933557
C            2.06725376806145       -1.33237096171121       -0.17715986745861
C            3.24114237040038       -2.11979301043303       -0.48546142190804
C            4.26997210749265       -1.28861135397136       -0.77963249580217
C            3.82104630675675        0.06259927374975       -0.65147622407759
C            2.49481500587892        0.08109632393467       -0.30291326360949
H            4.43780548481674        0.92706944842977       -0.81328287727496
H            5.26747778910475       -1.57331996077721       -1.06108440751603
H            3.25370897542173       -3.19387825158120       -0.48806379542745
H            1.08327696817519       -3.04616747787050        0.27703852021422
H           -1.98591632383777        2.74070417982101        0.02214682822045
H            0.29358088171557        2.68074244365603        0.18434377528796
