28
 energy: -47.431615429751 gnorm: 0.001000523390 xtb: 6.6.1 (8d0f1dd)
N           -2.81246919427254       -3.52804985784775        0.00114995338860
C           -2.15018972402887       -2.59233035346799        0.00380578420458
C           -1.25067365830627       -1.48372729710837        0.00571268973976
C            0.09551775839395       -1.97267822338025        0.01601647875206
C            1.33277958604861       -1.41755854039686        0.00591943499324
C            1.86990830362800       -0.04756557478187       -0.01817084726943
C            1.25529728578073        1.21410450351675       -0.01838455430576
C           -0.02958198621490        1.70529950642276       -0.00028461188739
C           -0.02444595073540        3.12535983146047        0.01310825829860
N            0.05574432217120        4.27112573795598        0.02651037995437
C           -1.34684033693282        1.14401474099264        0.00232408529055
C           -2.45515950294053        1.95031963651458        0.00337789296294
C           -3.64707146398480        1.15276388041474        0.00219329165183
C           -3.29321780141471       -0.15341583311596       -0.00008762803772
C           -1.84779940140176       -0.25124548776366        0.00076803252800
H           -3.95025625951690       -1.00235158340627       -0.00084595206696
H           -4.64531493043745        1.55066136215937        0.00279651466302
H           -2.44870729450638        3.02463222909956        0.00393421876286
H            1.98735464020894        2.01851961662832       -0.03430030943167
C            3.26233943285371       -0.17298803747182       -0.03004358521442
C            3.61430799297831       -1.56622304520607       -0.01484820948671
C            2.47930321955609       -2.30144620905244        0.01087790555472
H            2.40403848611388       -3.37262883880721        0.02968536664399
H            4.62558565644274       -1.93138356631057       -0.02128623803831
N            4.20101050821732        0.80569535291354       -0.10189557943444
H            3.94299394142343        1.76235332002497        0.06828877391884
H            5.15768463858108        0.55599460526924        0.07833636698126
H            0.11600004789520       -3.06042837465484        0.03172015288359
