25
 energy: -42.678344455077 gnorm: 0.000948177544 xtb: 6.6.1 (8d0f1dd)
N           -3.37031853302397       -2.07171412337981        0.02275528852448
C           -2.75402538249493       -0.87053414902371       -0.09191128935856
N           -3.40617070145833        0.20422424271717       -0.47548984425215
C           -2.51267004921424        1.22959580500571       -0.43221734143652
C           -1.24266889348336        0.83158747271946       -0.07830561477381
C           -1.33832336217558       -0.59804917209518        0.17615312004285
C           -0.48780252515274       -1.55926309276477        0.65132671911254
C            0.90820769019121       -1.64383886405390        0.81151177974022
C            1.94557916051021       -0.82847552817778        0.44323702249636
N            3.19224339568779       -1.35249457744368        0.38545176517186
C            3.91644598958001       -0.53301639563067       -0.36462010200417
C            3.22184118211280        0.60167307574999       -0.80024935300539
C            1.96182220491245        0.52894806138276       -0.21939453509393
N            1.10790625574291        1.51118776791858       -0.13798751149110
C           -0.13350233315810        1.71507961262537        0.15824026581643
N           -0.43826276305954        2.95020163172997        0.61960941350159
H           -1.39218102079583        3.20960954949160        0.78735900430226
H            0.29559283915727        3.62635940150105        0.73702588496033
H            3.61077641507121        1.41137116013010       -1.38384106464829
H            4.94569936964926       -0.77067733091507       -0.57484724896610
H            1.25695487560313       -2.61176790740599        1.15582138573706
H           -0.98328562993305       -2.49371723168496        0.90074946369728
H           -2.83898235556065        2.21432425283199       -0.71671378456279
H           -4.29025653428143       -2.12443069949223       -0.38231327010491
H           -2.81875589492695       -2.91209094223616        0.01057305349472
