29
 energy: -46.351404744396 gnorm: 0.000629204579 xtb: 6.6.1 (8d0f1dd)
N           -2.69360758474953       -3.10106443046269       -0.96455291380274
C           -2.09884756010173       -2.14829275969290       -0.71729270356225
C           -1.29461214534598       -1.02291418093179       -0.41622076332758
C            0.02988038406719       -1.36035565916884       -0.32976071335852
C            1.25463247820463       -0.69715414648216       -0.10280440618895
C            1.61816026914622        0.71065062661700        0.00855706379916
C            0.92395091412827        1.87085682681968        0.12613887753204
C           -0.45369661650273        2.22223857770941        0.19088488963896
C           -1.63437226858485        1.57011507351549        0.05623270723301
C           -2.87241643380597        2.33857808612589        0.17102477401275
C           -3.91994779312392        1.52106145579322       -0.04223843475807
C           -3.41370315260054        0.19520912556137       -0.29352592428530
C           -2.04786014026171        0.19170861284771       -0.23440884226085
H           -4.03579563685252       -0.65915153103601       -0.49096612795986
H           -4.96328014511398        1.77920937594814       -0.03109219697863
H           -2.89488515126625        3.39117374923151        0.38560032534276
H           -0.58127956633364        3.28430044145394        0.38630443351772
H            1.55097026650724        2.74996001597206        0.23761606924021
C            3.09428375057172        0.74687279756549        0.06915509302439
C            3.56119480135665       -0.52947914432868        0.08309142941015
C            2.44836788929938       -1.42333517767017       -0.02341640775775
N            2.61560062295345       -2.76800668999544       -0.08612953119438
H            1.82013342886215       -3.37314296158196        0.02308579611242
H            3.50896451550052       -3.14436772604588        0.17886004837103
H            4.58842214530680       -0.83871572697363        0.14693001831924
N            3.84422791572988        1.88411901762079        0.19405993108233
H            4.83585703990646        1.76386954056197        0.06355946539746
H            3.47380303375388        2.73696297817212       -0.19254637821803
H            0.18137333784954       -2.42402905194457       -0.50139919598029
