27
 energy: -51.729274669048 gnorm: 0.000718157170 xtb: 6.6.1 (8d0f1dd)
N           -2.00475862683723       -3.96191443628533       -0.49020553222278
C           -1.39192309020587       -3.00735089683590       -0.32632761178532
C           -0.58327240576162       -1.85109215508414       -0.15381418481401
C            0.78458956472538       -2.09832770036955       -0.18026214483831
C            1.90801951427887       -1.31833714279338        0.02048928978550
C            3.15595664487332       -1.95231724777978        0.27432947552630
N            4.12145390927082       -1.09199593561691        0.52402946125214
C            3.59803787449500        0.13149698804073        0.35769730469065
C            2.23025830351921        0.10637222561757        0.05570286500362
C            1.51146909888650        1.28799959186135       -0.25072929322162
N            2.25588317281122        2.33599279951885       -0.65004673743490
H            3.25192213390132        2.24184451338436       -0.74069836577247
H            1.83370378393196        3.24248796225359       -0.77790869918397
C            0.12176250523380        1.55034165818503       -0.11288647412985
C           -0.23941920435106        2.91876909718273       -0.23750589423878
N           -0.48283274535188        4.03368600370391       -0.36627865974277
C           -0.99722598939355        0.76890140801075        0.17089635413633
N           -2.14206423751687        1.40905387643911        0.42316019307058
C           -3.07666519837801        0.45200379996054        0.53024168056322
N           -2.62936107215769       -0.80829732781817        0.32627316697908
C           -1.32596215781702       -0.69378833354978        0.11609844880848
N           -4.34603036198941        0.71257813123411        0.80931334289543
H           -4.63461926030134        1.66594602256971        0.94197629135650
H           -5.00068039927241       -0.04777132231721        0.86665212490328
H            4.22250470400214        0.98910146635908        0.53789142428154
H            3.32559346876250       -3.01190654154097        0.32923776685302
H            1.02068505454554       -3.15258248392701       -0.30429440802118
