25
 energy: -43.477002294875 gnorm: 0.000602486356 xtb: 6.6.1 (8d0f1dd)
N           -2.33682881480470       -3.05528371003063       -0.12776580739745
C           -1.68932836895756       -2.10743990292843       -0.09932606271441
C           -0.82289862579630       -0.98003795274512       -0.09519725875996
C           -1.54630140829522        0.20041140051052        0.05640333799547
N           -2.86153371978398        0.09793771555507        0.31060882495567
C           -3.33109259362039        1.34080891950545        0.23044970397949
N           -2.45281417430075        2.27723135657166       -0.10508653095846
C           -1.27096814954152        1.64071434527666       -0.20485853930915
C           -0.14735078345698        2.36379936885771       -0.54974206870431
C            1.20687191481968        2.06933077964896       -0.49511509276323
C            1.95506333281793        0.96418796927768       -0.12925045479196
C            3.34056922317253        1.14121112901317        0.11876122351944
C            3.89533188220870       -0.05251613578750        0.51036884964079
C            2.90531658038536       -1.04417184684791        0.43687352355132
C            1.69000458880751       -0.47664312835879        0.05633667532848
C            0.55808122210050       -1.29311902016752       -0.20172186234512
N            0.82671585812673       -2.58475021711845       -0.48928941368488
H            0.07857386181069       -3.25461090429916       -0.56958485373121
H            1.77676130310678       -2.89850205564453       -0.57147750311042
H            3.07144524606157       -2.07003220908484        0.71410515013185
H            4.91227598468779       -0.21540224953545        0.81633821334332
H            3.84567692761648        2.08703826197750        0.05777915780890
H            1.83257436758621        2.93385282640591       -0.69822505345437
H           -0.39003719459361        3.38776409491075       -0.80992199717307
H           -4.36420520915797        1.56760054463737        0.42011873554295
