30
 energy: -50.085304922914 gnorm: 0.000730882792 xtb: 6.6.1 (8d0f1dd)
N           -4.58431918632658       -2.09764800168191        0.12078096425301
C           -3.78812413386070       -1.26523000173540        0.07804104703801
C           -2.88254127905824       -0.21196646431607        0.03221439200454
C           -3.27821040361129        1.16671570478912        0.09429134332657
C           -2.13484390984470        1.94058367999996        0.00441433753261
C           -0.99422409588438        1.11414990166149       -0.08850786265617
C           -1.48778380477821       -0.28920828736755       -0.08018360054045
C           -0.86545410634726       -1.52537473101148       -0.21321728572450
C            0.44789894705497       -1.94357496972305       -0.28006956182102
C            1.68948297410830       -1.33305151825066       -0.16534971345310
C            2.84528635449866       -2.13772906543309       -0.11427675956329
N            3.95682008574375       -1.44090502665379        0.08320459649561
C            3.59681357741072       -0.15039894824012        0.12632783554341
N            4.58737224468024        0.81942179083446        0.31488388041314
H            5.48419598793710        0.35227268362999        0.39438019417654
H            4.42387754682737        1.40348227171147        1.12780277167889
C            2.20280668847438        0.03775229213570       -0.04281366352816
C            1.60602988642184        1.29689547128967       -0.21570289186479
N            2.46466857677094        2.34117014720197       -0.36198370976917
H            3.43690959229729        2.13899992358953       -0.54608355975038
H            2.10220665439512        3.24554367069782       -0.60928483100013
C            0.24751510331810        1.69333937280128       -0.20359186444783
H            0.16398726808049        2.77733496033292       -0.26586942940298
H            2.87861177923468       -3.21005665911921       -0.17944080281047
H            0.54480570156135       -3.01931128430235       -0.39724079551257
H           -1.58487212037485       -2.33842447845363       -0.25681647653710
H           -2.11211734980790        3.01478327339409        0.01969112438286
N           -4.55288669798600        1.57698363407029        0.21700270487127
H           -4.77720662133327        2.55464689587558        0.24677957929314
H           -5.29291078830133        0.89899091467280        0.26853361527102
