28
 energy: -45.851301172114 gnorm: 0.000526994816 xtb: 6.6.1 (8d0f1dd)
N           -4.93093673965092       -0.51200731340834       -0.42377345716957
C           -3.62565818677233       -0.27838261689181       -0.23637494119066
N           -3.13743350921729        0.97385519152544       -0.14147737676341
C           -1.81525579230486        0.81807280784956       -0.00462755271571
C           -1.01851837802267        1.93484538258152        0.17581986480891
C            0.34980680475083        2.12039113290424        0.25563163007989
C            1.48367256352385        1.33267937860259        0.13199846830683
C            2.73194271491232        1.99433729759529        0.06120384470062
C            3.73369369052686        1.08157579973130       -0.16510509348864
C            3.16744465339210       -0.20327933439228       -0.18888422314534
N            3.92860292472277       -1.36141114901795       -0.39742972414546
H            3.50953711844206       -2.00977365624400       -1.05274382943587
H            4.87431515784985       -1.13058658734416       -0.67575419069113
C            1.77609224653853       -0.11048016682418        0.02340243628216
C            0.96600372613916       -1.24528543345406        0.25447462143398
N            1.63809431799107       -2.40412184866938        0.51567968463978
H            2.60619381920327       -2.35123523206355        0.78832621342747
H            1.10697143759111       -3.20934200073487        0.79972962311110
C           -0.42511957742869       -1.42844769297535        0.18444762719247
C           -1.53948707531793       -0.64545464849324       -0.00822367092235
N           -2.72724472796586       -1.26736471926887       -0.14331551606944
H           -0.71600830659158       -2.47276117829942        0.26938001548893
H            4.77876460248617        1.29471248143438       -0.30613949967435
H            2.85553373844154        3.05992325121470        0.12414807144543
H            0.61361415686940        3.16767151576294        0.38018110255672
H           -1.60961568570672        2.84212703416801        0.22878824632502
H           -5.26500540182634       -1.45738832718673       -0.39317609839466
H           -5.56918227337565        0.26141328889711       -0.39262618729221
