28
 energy: -50.650769677694 gnorm: 0.000853224198 xtb: 6.6.1 (8d0f1dd)
N           -1.96928840150463       -3.62586262884687        0.46665969431194
C           -1.47767999680792       -2.59372704255872        0.34216028804346
C           -0.84793174428144       -1.33617981107015        0.20278512130587
C            0.53165704569082       -1.44162486056155       -0.03138833567873
C            1.56905113654388       -0.55220131708058       -0.20660408722630
C            1.73766062313945        0.87074415529111        0.13202516105620
C            0.81702384498766        1.80188936603105        0.55128119002315
N           -0.44527029238312        1.92244386149634        0.23720425968335
C           -1.47548347773073        1.22343741961534       -0.06192644842089
N           -2.59150996382546        1.83519324671955       -0.49658495676223
C           -3.56849483354692        0.92318316097344       -0.43771451636394
N           -4.82392888450773        1.23827290229576       -0.76726689764821
H           -5.56931306295344        0.57644839784802       -0.64759354219380
H           -5.02421718522282        2.18202975347108       -1.04894588554720
C           -3.10984109792957       -0.36555641514102       -0.03625984497444
C           -1.75001655294643       -0.25524314082048        0.14570316730310
H           -3.71032212216346       -1.25256833208944        0.01823683708850
H            1.18655862835304        2.65358371445726        1.12211390330239
C            3.14939254377644        1.07202829549802        0.10935159420403
N            3.82226993585630       -0.02921608149466       -0.24500505949607
C            2.91211717332784       -0.99950899056576       -0.41713497510834
N            3.31729582957227       -2.24932170939139       -0.72422590083088
H            2.66282359853890       -2.91725956269622       -1.08970439417589
H            4.29141790054619       -2.36582205649502       -0.94148606724253
N            3.80872307490446        2.21786600653220        0.38166297319914
H            3.30531023751843        3.08514875768728        0.42336431254579
H            4.78635456870256        2.24317815281281        0.14940095731502
H            0.84344690844560       -2.48181243811724       -0.10040455741251
