20
 energy: -36.069038566988 gnorm: 0.000431277978 xtb: 6.6.1 (8d0f1dd)
C            3.75342904291572        0.00009584339721        0.40193144467996
C            2.96110266732496        1.12583228674722        0.21074707677079
C            1.63115496718744        0.72688728627063       -0.02890950299908
C            0.64126186038044        1.64164151327423       -0.42577553118749
N           -0.64133636027901        1.58063975412776       -0.33386262391443
C           -1.62768989697274        0.77140332463047       -0.21519978527661
N           -2.82603325933104        1.12947587344300        0.24237317037370
C           -3.50101434328114       -0.00066651112412        0.42510309074397
N           -2.82574809886408       -1.13042963668314        0.24105047741712
C           -1.62750604108920       -0.77153590080168       -0.21611821232566
N           -0.64099681603174       -1.58043580633952       -0.33577249439782
C            0.64160666381808       -1.64111316333906       -0.42772664822455
C            1.63131115984306       -0.72663349776954       -0.02975584950104
C            2.96133436438408       -1.12558513792375        0.20944075655967
H            3.29495742204449       -2.14654357854683        0.24490434483470
H            1.00191629348731       -2.61417259965920       -0.75652425393651
H           -4.53556159783954       -0.00096223628147        0.71557975241435
H            1.00138915258428        2.61515825423572       -0.75342021949223
H            3.29451992650803        2.14681586888665        0.24739443768056
H            4.80911011561062        0.00008720665531        0.59899420548059
