31
 energy: -55.399384837787 gnorm: 0.000776891213 xtb: 6.6.1 (8d0f1dd)
N           -4.19832074876973       -3.14728176384362        0.31519558054099
C           -3.59530148736195       -2.17717187906033        0.18697648070161
C           -2.84567067500861       -1.00547257123072        0.05495773035471
C           -3.28619808894810        0.20161403484425       -0.41525769592066
C           -2.19049628650646        1.11955834314798       -0.39270969903618
C           -2.28455564324823        2.43929305421607       -0.84938922299696
N           -2.38650789234874        3.49420015522502       -1.29293123918114
C           -1.03991705639868        0.46864061400773        0.04754991420130
C           -1.41310739317272       -0.92044491259939        0.31239840730365
C           -0.72989726616215       -2.03138805662371        0.71464132026849
C            0.63596558494250       -2.38486467631985        0.67919267231727
C            1.75580077792600       -1.74400189815259        0.23006993088493
C            2.91151352593853       -2.54206367380379       -0.13113045487717
C            3.83002600863590       -1.74755208097049       -0.72074461852712
C            3.36055298023145       -0.38494550983101       -0.66257352740026
N            4.10551997961448        0.66297268674878       -1.12828633567118
H            4.84192514331360        0.42765634990963       -1.77428642638709
H            3.62027627744045        1.52394494663462       -1.32687721703939
C            2.10276977864468       -0.36044150585936       -0.07264422373085
C            1.48714065337402        0.85487707027825        0.39074724021444
N            2.37355076998910        1.82742416252677        0.74146738907291
H            2.02272291949181        2.68837142242035        1.13084042339733
H            3.32781011347138        1.57472064280181        0.93065974023064
C            0.13566166542972        1.19079183964398        0.42133026382035
C           -0.14394933502882        2.49764564408860        0.88264680496256
N           -0.31941529848767        3.53587132828580        1.34522856436510
H            4.76579315895888       -2.04185932520222       -1.15928586275055
H            2.95431791091896       -3.60866528111765       -0.01890789671363
H            0.80119632497726       -3.43183788969922        0.91194132244984
H           -1.37644107923825       -2.86451734682318        0.97658247121264
H           -4.27905621871891        0.44045324285727       -0.74988220666623
