30
 energy: -54.104617112261 gnorm: 0.000759503048 xtb: 6.6.1 (8d0f1dd)
N           -4.34615194961913       -1.88191715142305       -1.16852763563962
C           -3.59157181107474       -1.11274522240244       -0.76105040630345
C           -2.73833037807221       -0.12924291277154       -0.28069153431307
C           -3.12590370995431        1.23402600775855       -0.02604574374508
N           -2.13849630909424        1.96618930427070        0.47011287154333
C           -1.03411067130293        1.17536513003420        0.50823872917845
C           -1.41294375293021       -0.22929675337253        0.14300610999177
N           -0.78991413759565       -1.35118192086253        0.37165729163189
C            0.43449975853273       -1.74308836125138        0.55217825139212
N            0.57628499494717       -2.90922667861805        1.22318318413173
H           -0.25366354729135       -3.43125503446674        1.45063874930896
H            1.46556074566007       -3.37536826063182        1.22137437747456
C            1.62861206575833       -1.16202440214398        0.01607443402586
C            2.69753595663734       -1.90254645429040       -0.46089708108306
N            3.73362553885819       -1.13093769645467       -0.84598973105967
C            3.39431644668609        0.11626218369834       -0.56571673989024
N            4.28295952926152        1.15708265979319       -0.81710211121886
H            3.87232992428552        1.92961950591182       -1.32873447036395
H            5.09845331896437        0.79360423340966       -1.29681330701983
C            2.06928815140920        0.22023420083798       -0.02133910791676
C            1.53051067949795        1.40099758000305        0.50660715715340
N            2.40569736335318        2.41557057645676        0.72453313749178
H            2.08315422370842        3.26279448409202        1.15839659642513
H            3.39440613157734        2.21785919599879        0.70657914236736
C            0.17520704847243        1.76645882945827        0.73510917130821
H            0.05782313452200        2.81517670982697        0.99443595885876
H            2.74726517228834       -2.96668948437413       -0.60940578634507
N           -4.34630569990274        1.73053728888396       -0.25259639330530
H           -4.54094427158053        2.68440760999333       -0.00605809458934
H           -5.06287277690217        1.14894789923412       -0.64948672748993
