31
 energy: -54.610363982046 gnorm: 0.000768767663 xtb: 6.6.1 (8d0f1dd)
N           -4.20203452917674       -2.68036871004350       -0.97924532854899
C           -3.79866161891644       -1.61909264003771       -0.79140721017831
C           -3.31025762212262       -0.33304689521243       -0.56913247482355
C           -3.99177846485091        0.88569334653437       -0.86117952989147
C           -3.23054942662543        1.95045130593435       -0.46505360687074
C           -1.97777126065834        1.47624858658588        0.01730119313497
C           -2.08762944627089       -0.01948431836116        0.02975187658090
N           -1.34713199356841       -0.88855597846537        0.66291138874656
C           -0.11487040922524       -1.02580576730161        1.02971495705705
N            0.11646198265397       -1.95851534764262        1.97994852962175
H            1.05282187875865       -2.15923614994778        2.28083027483795
H           -0.66325151645779       -2.45223202607558        2.37867825993279
C            1.03963461628107       -0.41963024002149        0.42061593091484
C            2.21104908502400       -1.11365519382969        0.14837319102545
C            3.18881412112471       -0.17445362755404       -0.30571995309556
C            4.47234641735872       -0.51411691485100       -0.73402974161673
N            5.51966297075736       -0.82823937420220       -1.09110621946978
C            2.63694155282593        1.09446763653513       -0.23670472563815
C            1.28536206393451        0.99315626590621        0.17540587506812
C            0.48827805566451        2.13372820415782        0.37784819580236
N            1.15450530992985        3.29688917453246        0.60442226794583
H            0.67647068743741        4.17926502002446        0.55246781752076
H            2.15815795863938        3.30039086085612        0.63754625033961
C           -0.91957570861752        2.30348335493196        0.25121171609706
H           -1.19416365241976        3.35593304477478        0.20553597845189
H            3.14116252563873        1.98434256108641       -0.56747091922956
N            2.45251485877191       -2.46506801317017        0.30279816676702
H            1.64795642506624       -3.06545004380839        0.19265381419401
H            3.26403954262133       -2.79577356252267       -0.20039003241006
H           -3.48973249028744        2.98846575042017       -0.56251399573801
H           -4.96441640369192        0.93261575297194       -1.31832333892990
