29
 energy: -55.179906988351 gnorm: 0.000703485189 xtb: 6.6.1 (8d0f1dd)
N           -2.47963849553367       -3.17660464650102       -0.46837561772203
C           -1.75310135533142       -2.30446615370504       -0.30136976731707
C           -0.78416915776406       -1.28045021846207       -0.13540380974030
C            0.48239126481209       -1.79740134551538        0.18145907956533
C            1.73520169570718       -1.26161689318244        0.39852840406077
C            2.81817639267948       -2.08003758862132        0.83675554575276
N            3.96694658929451       -1.44324444434904        0.86977085731788
C            3.72909639023453       -0.18635613423932        0.41027479898369
N            4.76722430939694        0.69718137635427        0.28039629476154
H            4.54164943471794        1.67484830676497        0.38457645620375
H            5.59690728881860        0.40236909139492        0.77426130060189
C            2.37618709447880        0.01552450479132        0.10812012807911
C            1.82226501795196        1.12950229790584       -0.56276459635912
N            0.64110096989146        1.64443856677192       -0.35018811164098
C           -0.56203323678402        1.34474699994364       -0.02630238239522
N           -1.41982141716098        2.32542872835593        0.30393627627113
C           -2.63976129811990        1.79687344449692        0.27929013220245
N           -3.73544205704135        2.50814444374449        0.52580481305531
H           -4.64262807195163        2.07617661401727        0.46934341992694
H           -3.64582437616323        3.47940209233857        0.76963576727728
C           -2.63047378525198        0.38505845067576       -0.03020884823730
C           -3.81084412695370       -0.34980899482721       -0.07973970759876
N           -4.85825911933653       -0.82631479913641       -0.10364398835433
C           -1.28879105107723        0.02657999869347       -0.14661250305164
N            2.61921035342974        1.84594635399244       -1.38800189475058
H            2.20986608390318        2.60815896558764       -1.90201887127462
H            3.49540351110853        1.45684197332482       -1.69163009598623
H            2.74902363418390       -3.10828833580807        1.14132472817658
H            0.45888373546082       -2.87477862920403        0.32849316989248
