32
 energy: -59.132742089132 gnorm: 0.000928858896 xtb: 6.6.1 (8d0f1dd)
N           -1.36809114410001       -4.22291919704962       -0.75079611106285
C           -1.10879784283144       -3.11286283231017       -0.60728444234954
C           -0.74699177601540       -1.75323804325460       -0.44207643815447
C            0.63356193965911       -1.60851315238671       -0.18756019517342
C            1.51055467059154       -0.57093329631210        0.02212976525743
C            1.42898039398373        0.87453169629827       -0.27032647418902
C            0.33915896013606        1.62080898792072       -0.68805442365922
N           -0.92242504715665        1.49042026937998       -0.41425311543906
C           -1.81714016857718        0.60797070450516       -0.13412354266641
C           -3.11014471292476        0.94631183422634        0.31460770160187
C           -3.55503938086715        2.19556252349336        0.73188478543168
N           -3.97420984388381        3.20385709352231        1.09737769300430
C           -3.94062282238266       -0.20090550368285        0.17097230953536
C           -3.15831641256349       -1.28182154871787       -0.27814703271983
C           -1.83569898658993       -0.87481048527460       -0.39159351343193
H           -3.52025824266013       -2.28299066385377       -0.41918724250609
N           -5.24988194261968       -0.22931697135372        0.44161427701334
H           -5.70750061143185        0.59388068765954        0.79525456688567
H           -5.78871733404963       -1.06004658854714        0.27101574638505
H            0.55197219481993        2.54708566071692       -1.22131514827576
C            2.74049022051358        1.39365455922118       -0.20605956474498
C            3.62379103049353        0.35411872767929        0.17947254758564
C            4.99396386203766        0.49319871969587        0.39052911067907
N            6.12237813911910        0.61281863201296        0.58186475044229
C            2.89084281479377       -0.83793895978703        0.30555701908963
N            3.43948024657311       -2.02962364362573        0.62223531687329
H            2.86394492558552       -2.81906117481344        0.85481289936152
H            4.41132817047743       -2.06043531144535        0.87739800990577
N            3.13076117623834        2.66393523227468       -0.44681611918978
H            4.07128147039541        2.93217837822297       -0.21384125986814
H            2.44578809222696        3.39011240443824       -0.55260544071677
H            1.11046979711086       -2.58456792073113       -0.12505557569890
