24
 energy: -38.950504683679 gnorm: 0.000609637733 xtb: 6.6.1 (8d0f1dd)
N           -3.51091877621663       -1.74928570207641        0.03359068000754
C           -2.83055975353264       -0.57146677798117       -0.04347184206219
C           -3.46841205311735        0.68910908042383       -0.26989120129575
C           -2.52479709014108        1.66463630145800       -0.21917615494060
C           -1.22723995263847        1.07866371239582       -0.00276449520690
C           -0.14140077006871        1.89726336601593        0.16373651272244
C            1.24708666321922        1.70616052342964        0.31927586101845
C            2.06023468527245        0.60758043425971        0.31424831930595
N            3.40312385958999        0.79982859934660        0.20193637689709
C            3.91441206827881       -0.32745433715851       -0.24890629756749
C            2.96362305548049       -1.35392058059738       -0.40147569436626
C            1.75926396833721       -0.84122650945561        0.05479470211624
N            0.68913807753453       -1.55743495914427        0.29782894020240
C           -0.57035548906288       -1.40211672099710        0.47019778087685
C           -1.45804221258915       -0.36594354040834        0.10908255255879
H           -1.04606591035883       -2.28557155013462        0.90022354802686
H            3.14682909957530       -2.35814687644706       -0.72927851039319
H            4.97072493661730       -0.40277565015481       -0.44460022990917
H            1.81689413868998        2.62938704835600        0.34183230251780
H           -0.40426029657143        2.95036887342053        0.11739503941049
H           -2.68928609191996        2.71924723454500       -0.34181707721143
H           -4.52593365354344        0.81582949932673       -0.41661373762987
H           -4.44080643915947       -1.77205574390807       -0.34947349663734
H           -2.99018408677453       -2.60797758341474       -0.02115778594062
