31
 energy: -53.813698486126 gnorm: 0.000801016290 xtb: 6.6.1 (8d0f1dd)
N           -2.86074453172266       -3.10329255305426       -0.06313724725301
C           -2.08567088518285       -2.25375279748822       -0.04995661832065
C           -1.08632843413738       -1.25305252655120       -0.00404320326977
C           -1.62951387160934        0.02694905404369       -0.12353634096207
N           -2.91566920325262        0.15718841568863       -0.44718103479887
C           -3.19091442074514        1.46643925440600       -0.26568254380301
N           -2.18526377259452        2.21210899973061        0.20802851460308
C           -1.13652586140415        1.37342350103117        0.29013392669188
C            0.04252465301983        1.82519973670595        0.83211863267857
C            1.36902457089680        1.37102405256282        0.78778997645185
N            2.25160043334627        2.15778600662404        1.44999974924029
H            3.23080217685083        1.92540414117052        1.43996209801873
H            1.94014510781247        2.99518809783218        1.90956110564925
C            1.93358454121705        0.30081778648405        0.05235481965773
C            3.27327545379084        0.33806558378341       -0.40587270602465
C            3.60819532407008       -0.90122720892722       -0.94415875755531
C            2.53102904295119       -1.75517287626212       -0.77367361189431
C            1.45314799814763       -1.05243352468859       -0.20662519559768
C            0.24575375506045       -1.73077820556427        0.07992192471434
N            0.36580789426733       -3.05727086094896        0.33185272018780
H           -0.45116687020161       -3.64621263081736        0.32594963350925
H            1.27644882641622       -3.48002944177089        0.31323568082061
H            2.50173358696862       -2.76646611816477       -1.13921480930500
H            4.54434020345790       -1.14619218285224       -1.41287490655293
N            4.14434248435851        1.44063550578960       -0.37002546440112
H            3.70057563396617        2.30854945040670       -0.64694946009914
H            4.96381101725408        1.26942235394157       -0.93977621213884
H           -0.07237089156298        2.80758280893282        1.28029366119443
N           -4.39583082431022        1.97000034544763       -0.54518736170599
H           -5.12400863966456        1.34273962182439       -0.83402988241459
H           -4.59064254686263        2.92977752718451       -0.32752221532137
