31
 energy: -54.619284749029 gnorm: 0.000948213612 xtb: 6.6.1 (8d0f1dd)
N           -6.10259445289917       -0.56315580999076        0.66503367315767
C           -4.99349753258434       -0.37516520815895        0.42106341822851
C           -3.64297010032146       -0.18298685620841        0.13583863958315
C           -2.95420801320493        1.05792369693906        0.11496349918629
C           -1.62039672864600        0.83534987148709       -0.14976415614411
C           -0.66676669801155        1.88529846806559       -0.35002523795397
N            0.56423488222180        1.93068136091913        0.06116621739160
C            1.57186814861968        1.13624149249383        0.27788131706146
C            2.71161697731522        1.53212274252414        0.97440569361072
C            3.73697123393600        0.61429677917047        0.72696120215005
N            4.99573373182211        0.66806523038358        1.18560786260064
H            5.28298577929561        1.40072412765962        1.80930752269515
H            5.65973416249581       -0.03650544863547        0.91384308413582
C            3.23654360326108       -0.42451064438544       -0.11744969545099
C            3.98955278848379       -1.51246244289059       -0.53849767695248
N            4.64852085454020       -2.39717718885536       -0.87250083904423
C            1.86527207799567       -0.19688439142369       -0.34225358264585
C            1.02327472264884       -1.16846908743443       -0.84751950553713
C           -0.35872158166271       -1.35236231248464       -0.79430594859317
C           -1.43311050867344       -0.59948920595388       -0.36016949758052
C           -2.73404017476973       -1.19159460647679       -0.18928693457898
N           -3.05187802457259       -2.51140557698917       -0.33211587547148
H           -3.95299790958218       -2.79142913838744        0.02055925847553
H           -2.31963672629402       -3.19545273920494       -0.24698860323117
H           -0.64494597907861       -2.35196410237103       -1.10916103824251
H            1.56272301110528       -2.03707520895738       -1.21542509684865
H            2.80276857749683        2.43436932405985        1.54677376541823
N           -1.13256634433947        3.03154101292201       -0.89569584552785
H           -2.09658115061145        3.11638115844190       -1.15947507772851
H           -0.52085626208573        3.82588911942059       -0.96384856874759
H           -3.41652357200339        2.00412423342299        0.33239564858478
