33
 energy: -58.032520841013 gnorm: 0.000947498450 xtb: 6.6.1 (8d0f1dd)
N           -3.53699254870283       -2.91043638696815       -0.57271993089342
C           -2.81820587276426       -2.03782654153073       -0.36107223977356
C           -1.87336235761419       -1.00402533342028       -0.16926412527457
C           -0.54178941639042       -1.33605982098304       -0.47974610594781
N           -0.34314617316945       -2.55051785330653       -1.04024953308971
H            0.59173401794027       -2.86542483926362       -1.23518209505986
H           -1.12158015314087       -3.17297829077271       -1.18470168263969
C            0.65141780190456       -0.61458705953919       -0.16582923439780
C            1.00765060339792        0.78994255069801       -0.40106448088321
C            2.41539079640616        0.89222053521097       -0.20961462855243
C            2.90400012842112       -0.35558939097623        0.18758513216802
C            4.21008952297883       -0.63648000199424        0.57695796413559
N            5.28525576679032       -0.86482727064800        0.92043739739306
C            1.83007220106210       -1.28641497782586        0.16452522208419
N            1.99918432820855       -2.63453086671081        0.44400015690784
H            2.88081993349652       -2.83695349996552        0.89647064973589
H            1.21941438097042       -3.07973184413321        0.90801260585202
N            3.20408250013031        2.02431649485648       -0.32253273673366
H            4.11089566241177        1.91215733094061        0.11206875789978
H            2.75365210986662        2.89156123016671       -0.06405544487964
C            0.23896384268816        1.88165413686807       -0.82374598531695
N            0.89676223172406        2.87276748678994       -1.49598450272090
H            1.76826682588964        2.65299630255209       -1.94813369334875
H            0.36577132020856        3.64651980033735       -1.85758848922084
C           -1.08580772227555        2.22197021524076       -0.45063317874535
C           -2.06724565678450        1.58672911321824        0.25590823235960
C           -3.18137650826862        2.26828030003419        0.81996039501339
C           -4.02398603320964        1.30956112437445        1.31209085033346
N           -3.60667151930406        0.05036033827576        1.01316434806277
C           -2.43524139284874        0.14736655229115        0.41665652660533
H           -4.93340256242308        1.44412301782186        1.86977432778113
H           -3.28007754455913        3.33270185482250        0.91006019066194
H           -1.31744029024096        3.26224292493993       -0.67177165651540
