26
 energy: -46.401079282573 gnorm: 0.000772150804 xtb: 6.6.1 (8d0f1dd)
N           -2.75305447008645       -2.75337836506895       -0.03627152005378
C           -2.37417088131406       -1.45078694743210        0.10734024661691
C           -3.20469989184451       -0.40603247178473        0.46662351447318
C           -2.46282426112476        0.78802924237715        0.43071031828005
N           -2.99647012289558        2.02797347594922        0.66077558149595
H           -3.87005728589798        2.03521687096184        1.16423224386950
H           -2.34510367650387        2.74921989356358        0.93146952251618
C           -1.11768344835673        0.49907390392427        0.11136027307069
C           -1.04162270657027       -0.94317683341816       -0.09969091353388
C           -0.01598629244547       -1.75210486575389       -0.55492272558712
N            1.28074862516143       -1.67982229387330       -0.38967802416580
C            2.21369994062269       -0.83654492572642       -0.18553118896433
N            3.44203539774922       -1.18072551877420        0.23442590053820
C            4.04786102981616       -0.04185524789275        0.53027747883155
N            3.32116021638253        1.07409381705613        0.46537966569635
C            2.14038912353847        0.69945393629301       -0.02882347841248
N            1.12150587503163        1.46406940264950       -0.10307788145263
C           -0.17312066909133        1.48042109520621       -0.27372797880213
N           -0.64805312377371        2.69864577657386       -0.70229164684765
H            0.05532335654013        3.32986263207088       -1.05338576049824
H           -1.54183828490666        2.71211625900775       -1.16568828210527
H            5.08169050944968       -0.01620691316228        0.82648937868062
H           -0.30907086460659       -2.70883131171940       -0.98505089241545
H           -4.25294705720472       -0.47720288082677        0.69059309860991
H           -2.03655499897630       -3.45848897731100       -0.01549991905058
H           -3.63317133909288       -3.01670880158928        0.37441767101005
