31
 energy: -49.790294047370 gnorm: 0.000769743015 xtb: 6.6.1 (8d0f1dd)
N            2.51977395860472        3.05497108653380       -1.06702723066701
C            1.87956896492205        2.17643900613359       -0.68518901274476
C            1.06914906770238        1.10622197429521       -0.25848585081775
C           -0.29831847276761        1.32368123485028       -0.31374918763191
N           -0.72043391944174        2.56016576680666       -0.72216791006203
H           -1.68551923809930        2.67979907194603       -0.97450717010782
H           -0.04390867277313        3.19702589133739       -1.11011392642263
C           -1.36508833205588        0.45736614092462        0.11708970992224
C           -1.60261201049560       -0.93900302403603       -0.20068013754079
C           -2.97092640865243       -1.20410746833629        0.13698758536058
C           -3.51417237738436       -0.09029367803471        0.70442680423137
C           -2.55273875404661        0.95631542038308        0.64931381437261
N           -2.82328043566581        2.24965234313735        1.06458436417413
H           -2.01455008785063        2.79389631910880        1.32792452302000
H           -3.58051947316429        2.31588994814110        1.72831370407921
H           -4.49779448241122        0.00405192572594        1.12761698632299
H           -3.44654019203614       -2.16749024338698        0.09215363178099
C           -0.78725433870146       -1.95108409688363       -0.69980571144452
N           -1.39410370657269       -2.96610882135898       -1.37733478575627
H           -2.39088386264042       -2.94400064349653       -1.50022209221558
H           -0.92182789254653       -3.84543982853750       -1.50128666703130
C            0.59206691760688       -2.18480412080858       -0.41721059183224
C            1.59688541296724       -1.44892846855326        0.11986627309991
C            2.80460515880572       -2.08920978140497        0.58960276191922
C            3.67373802434010       -1.13636938033554        1.00226901280843
C            3.09639005334448        0.15229676707748        0.75674259890105
C            1.83521549962891        0.00291350590738        0.25191745237766
H            3.58998390285406        1.08792064381837        0.94624445462578
H            4.64363521583784       -1.29411494845683        1.43914023128179
H            2.92996460065379       -3.15489593647100        0.64499444597459
H            0.85694053273731       -3.23033156092657       -0.56656128137820
