24
 energy: -43.757263868208 gnorm: 0.000664480298 xtb: 6.6.1 (8d0f1dd)
N            1.42501234542045        3.69011006807505       -0.15626704800547
C            0.93349002319013        2.65387765988051       -0.11462976925437
C            0.31462251333356        1.37680429776589       -0.09504902521679
C           -1.05108797888577        1.42630237337903        0.15292270453271
C           -2.07501950264850        0.48673579794814        0.25530671109885
C           -2.22611079201174       -0.90555902553711       -0.17167968747910
C           -1.28697537659813       -1.76358847033930       -0.73858072514087
N           -0.02775686640651       -1.85038549870337       -0.47375269570302
C            0.98593494911933       -1.18266899181304       -0.06069421746145
N            2.10080105598430       -1.81500259400102        0.33391129454661
C            3.06837358845275       -0.89421531938960        0.37665365430863
N            4.31895787801701       -1.21899743903144        0.69745329088693
H            4.52623012780377       -2.17759541289899        0.92021519167307
H            5.05379834575269       -0.53451569378183        0.67339235495095
C            2.59457902357780        0.42283390984484        0.07239974085516
C            1.24337896108641        0.30781273360642       -0.13491895619848
H            3.18683041690411        1.31664342100191        0.08241004349549
H           -1.65272778702081       -2.54009072461868       -1.40708447281858
C           -3.60179584329099       -1.16291320314547       -0.05241272644309
N           -4.27588979325408       -0.11177118880965        0.41228284187972
C           -3.39542008609939        0.87486299888041        0.56506067157187
H           -3.71458761756833        1.84726290724401        0.89416386276573
H           -4.10038349003108       -2.09298946360581       -0.25539839491509
H           -1.40640212492682        2.43938193474833        0.33033158957079
