30
 energy: -50.888750095885 gnorm: 0.000684500161 xtb: 6.6.1 (8d0f1dd)
N           -0.89094475003148       -4.24311583304977        0.07570578531445
C           -0.55525769570432       -3.14488974664272        0.05219245677307
C           -0.08815119210028       -1.80467914651273        0.02244418115916
C            1.30826887474587       -1.76644514096189       -0.00016523694886
C            2.29235612556926       -0.79899487263250       -0.01565867301517
C            2.28824566244151        0.68788372160627       -0.01828894921875
C            1.28596566557702        1.62333533546153       -0.04344042454867
C           -0.11275546416130        1.60398368413041       -0.04991651390810
C           -1.09832064974602        0.64159361710027       -0.02210779635847
C           -1.11988953690472       -0.84503636007349        0.01793614505262
C           -2.45305466851746       -1.23127007655885        0.04418901884758
C           -3.28638411483199       -0.09693654032931        0.02020148837202
C           -2.45868067529379        1.04839983299071       -0.02199843027597
C           -2.93548973459133        2.35433598531807       -0.05159156802617
N           -3.37052841001311        3.42107366814543       -0.07471466517182
N           -4.62693492519818       -0.09260627922554        0.03600598211762
H           -5.12747191088976        0.77905063034026        0.01100181777898
H           -5.13812706138950       -0.95668645843158        0.06288383724985
H           -2.80846055809238       -2.24428317624329        0.07601287868804
H           -0.53717820144183        2.60466439936127       -0.07701441934950
H            1.66029005182810        2.64292740753909       -0.07079397742437
C            3.66573491405100        1.07939390148065       -0.01371111231861
C            4.46230949184607       -0.06487279198687       -0.02904485178321
C            3.64095283754264       -1.18389900327689       -0.03010768813196
H            3.98224529165888       -2.20303447034191       -0.03427624132084
H            5.53734708314625       -0.07032723460006       -0.03593697100626
N            4.15191848351170        2.35735810013693       -0.06202561453543
H            5.12846516224538        2.46607205067844        0.15684769247747
H            3.56037986773880        3.10806414016105        0.25282309682860
H            1.73465150870536       -2.76816591318264       -0.00107386201791
