28
 energy: -52.239251518718 gnorm: 0.000997947226 xtb: 6.6.1 (8d0f1dd)
N           -3.93133266004646       -3.50854576270651        0.65051271690396
C           -3.56419527130398       -2.43756709299653        0.45202814012089
C           -3.08559196855431       -1.14802404393442        0.21197109799824
C           -3.81016874475431       -0.07549710551687       -0.29371461165357
C           -2.97690321795901        1.05374965423428       -0.39921570042728
C           -3.36414705174108        2.31521388331978       -0.86039130639636
N           -3.68673460290985        3.34647849198764       -1.24945736153709
C           -1.69949582794515        0.72712319029956        0.11058203940899
N           -0.80618427498539        1.60497166594498        0.42487709675558
C            0.43045085127241        1.71414731508408        0.76208792656506
C            1.53530004513870        0.93241237307600        0.39796358867544
C            2.82945512069265        1.42161502851951        0.40440713035771
C            3.72833790181215        0.40322108680907        0.01351450869977
C            5.11390055481990        0.52023519571160       -0.13182268959821
N            6.25301950853716        0.57877797568716       -0.27251790146341
C            3.00373961640783       -0.77706865319653       -0.19193722155612
N            3.54477140648617       -1.95907279727096       -0.54818154372495
H            4.52609215969577       -1.99083770997555       -0.76686550135645
H            2.97100356257839       -2.73365510045963       -0.82995285215051
C            1.60262910851559       -0.50676504621962        0.05973900734478
C            0.70594284843931       -1.53411046672093        0.17727443259329
C           -0.69059910367968       -1.64456775464802        0.37253265676236
C           -1.72002212941814       -0.74559045541223        0.37308066424105
H           -1.02922830526253       -2.67640837008555        0.41183085334772
H            1.15947671244170       -2.51510607849889        0.06807704432320
H            3.11566737857358        2.43080672264247        0.63524411760479
H            0.65680363084789        2.63570280225137        1.29445106101134
H           -4.85184411150230       -0.09615158922575       -0.56104868225207
