34
 energy: -63.364829745645 gnorm: 0.000924026737 xtb: 6.6.1 (8d0f1dd)
N            0.08399085739462       -3.92388224471034        1.59806453301728
C            0.17400434528781       -2.91024475168189        1.06704606054286
C            0.40623425549639       -1.62646300678431        0.51027195893516
C            1.77370545685306       -1.39483288592538        0.29286001196721
C            2.50354405438634       -0.34921023117402       -0.21306290147974
C            2.27008002253235        1.10354619833357       -0.27867319075023
C            3.44637319964941        1.66215466597986       -0.78725495045347
C            4.37411898463655        0.66360234328477       -1.07907208077658
C            3.84422623802781       -0.55943329399897       -0.69084128414343
N            4.49429268617471       -1.75460679438277       -0.76274266226182
H            5.32952711285757       -1.78558362713440       -1.32181236282371
H            3.96564412325066       -2.60843377465765       -0.72013616827508
H            5.34064969815475        0.81565681894485       -1.52206704217844
H            3.60457841511195        2.70250996876564       -1.00998700952095
C            1.23934379897286        1.90726419220902        0.25122754225271
N            1.61054743159823        3.14874903042062        0.63997313142443
H            2.57812421539872        3.41238946881048        0.60707938875246
H            0.92202900109249        3.83941358489787        0.89061380627219
C           -0.16176503390969        1.64689808752143        0.31410528817932
C           -0.92665253614333        2.76230249061349        0.73586828884143
N           -1.49127789928567        3.65795560451309        1.18471613898197
C           -0.95662486704392        0.54554913757681       -0.03187081660460
C           -2.31500424186667        0.71003332799228       -0.37347526142653
C           -2.98816864644026        1.87533089239415       -0.74648003242892
N           -3.61755106740336        2.75942363865720       -1.12659531107330
C           -2.93891822063455       -0.56047642667406       -0.44065492000450
C           -1.96986832330751       -1.53894707594966       -0.08900494967632
C           -2.27618813846686       -2.90067583046518       -0.12711458438032
N           -2.64669408073421       -3.98405815864296       -0.23553791327223
C           -0.73185954737662       -0.90687744164829        0.12654929959078
N           -4.20330916992737       -0.80099394655831       -0.78862484791242
H           -4.54826274226960       -1.74653582781391       -0.81445178463397
H           -4.81282841647186       -0.03918518740074       -1.03680278375156
H            2.36251190700558       -2.28828503101158        0.48769441826905
