29
 energy: -50.357369056371 gnorm: 0.000633703929 xtb: 6.6.1 (8d0f1dd)
N           -2.35040347949134       -3.27819147085869       -0.37210268479482
C           -1.67426816464837       -2.35404578805330       -0.24902670783110
C           -0.82917359996405       -1.22839922607190       -0.13762802063420
C           -1.55898323176455       -0.01957768786983       -0.07581257647727
C           -1.09571631116569        1.41873750738125       -0.19046461845139
N           -0.02410059819455        1.92801327508958       -0.71267036054076
C            1.21429181534710        1.58260111188373       -0.92121759941197
C            1.98030123554508        0.62451828935794       -0.28098914589347
C            3.38209205260137        0.77004265747668       -0.02738377038781
N            3.87407347714226       -0.25907201767714        0.65717914591022
C            2.86782205912100       -1.13631636462851        0.79793226624838
C            1.65198013748508       -0.68310599033148        0.27817660686621
C            0.53812593173855       -1.53903688237463        0.06124885242150
N            0.82920084003685       -2.86382109979812        0.09908246810536
H            0.09770658347019       -3.55128118862194        0.03594062272749
H            1.77910297295152       -3.16292732077385        0.21968429484741
H            3.05952695710241       -2.04763882456327        1.33799200666088
N            4.17624617526739        1.81711768354190       -0.38819176508336
H            3.73831977608921        2.69901071854231       -0.59103906751905
H            5.06000480447931        1.85947031639547        0.09252681949702
H            1.73834409991270        2.27957392345777       -1.57507654272815
C           -2.17856785659233        2.21942377803441        0.18324877405607
C           -3.28437079656706        1.39861508175041        0.40055149185098
N           -4.51759662284310        1.79349567681538        0.75260437693042
H           -4.72412468954354        2.76901692425404        0.87232577733156
H           -5.26593748757889        1.12565421146741        0.80577704261780
C           -2.90114909887803        0.03806065368722        0.21099035981985
H           -3.55953374278179       -0.79998422562389        0.34524928446757
H           -2.16272991157672        3.29073781010948        0.22105720129390
