29
 energy: -51.155193152965 gnorm: 0.000901596438 xtb: 6.6.1 (8d0f1dd)
N           -3.72717484065996       -2.01085539609861        0.96321016143855
C           -2.79478856041325       -1.43374435534700        0.61735648143442
C           -1.65090227073990       -0.70059543681876        0.22240728663930
C           -0.64152494515420       -1.50809929357080       -0.32604328049030
C           -0.85199515425070       -2.81638780204406       -0.75700537533488
C            0.39976542722102       -3.34048315589002       -1.08073056962080
N            1.39297483058594       -2.50376464491221       -0.79012723020903
C            0.84465233031995       -1.36367313257390       -0.34384890628406
C            1.69785473656114       -0.40508732372682        0.18899471936550
C            2.99843335555263       -0.91885087569139        0.43666674496278
N            4.06011146410647       -1.27381592643526        0.69079897202612
C            1.56409116419923        0.99783401953846        0.38757366198326
N            2.61081845752924        1.61670155495741        0.97325852137599
H            2.61542610554045        2.61967652831845        1.03890324315463
H            3.45887562973851        1.10979009034632        1.17174602968162
C            0.54668904877628        1.83464609676729       -0.11905131244157
C            0.84339927848119        3.13878771873487       -0.56341926635917
C           -0.32578737457156        3.76166818849598       -0.96360153682338
C           -1.39262294278294        2.91299628289808       -0.67909859715763
C           -0.90090588817518        1.69624334849607       -0.19160224509272
C           -1.78156717116288        0.70257438965028        0.31374154233201
N           -2.94119512345001        1.16668264179456        0.83279886509159
H           -3.10895144085806        2.15664233861686        0.86167973110491
H           -3.69085075214617        0.53479359690330        1.06263359030646
H           -2.42344423154043        3.12826918473925       -0.89759235940245
H           -0.40009673718163        4.73381838385199       -1.41441360616508
H            1.83133513935649        3.54466888323764       -0.68777493854807
H            0.61284166212227       -4.29733968860681       -1.52232057497510
H           -1.80084342270385       -3.29991771933179       -0.88244597179323
