29
 energy: -51.159639080467 gnorm: 0.000516579201 xtb: 6.6.1 (8d0f1dd)
N           -5.17950346664345       -2.27653893255183        0.25526449139648
C           -4.53968669164625       -1.32293158792831        0.18333289386762
C           -3.76551478081809       -0.16912594014964        0.09445313154871
C           -4.26560223642115        1.16900788602491       -0.03626260316604
N           -3.31753516347753        2.05194524549006       -0.09934137238886
C           -2.10998144711530        1.37278746746822       -0.01385241192352
C           -0.99985742935858        2.15240714510547       -0.05293910234475
C            0.40083695691531        1.91948300971579        0.00153859615755
C            1.20409654424588        0.82882542870542        0.08427917520386
C            0.96672521249812       -0.63918093585467        0.17046700357225
C           -0.19602257338898       -1.41776270833390        0.23698458513474
C           -1.55266017104157       -1.20747856785886        0.21614321100405
C           -2.37204532110026       -0.07658046375110        0.10888744994975
H           -2.13893487275651       -2.11823221111105        0.29426843480228
H            0.04132424814852       -2.47279833747504        0.33522548005661
C            2.22381967810665       -1.24874699965305        0.21042445021583
C            3.24665799435174       -0.24245155407690        0.16139678967743
C            4.61785953635076       -0.49483844498525        0.15808801694257
N            5.74806556101417       -0.70890273753734        0.13718553088386
C            2.64696629412174        1.00606717364123        0.09030675116405
N            3.32226032654373        2.17671715555938        0.07264572644980
H            4.32229408172150        2.14398913915133       -0.02936496136553
H            2.85945853764204        3.03909752684332       -0.15065656007178
N            2.53334840838478       -2.56375288451599        0.32918179058744
H            1.83200483349784       -3.26336471651605        0.16212532629108
H            3.49233030824311       -2.83435177074273        0.19178249004547
H            0.94227761029109        2.85979735477831       -0.03852216307407
H           -1.25807781630291        3.20206903834471       -0.14589600672101
H           -5.30333184570689        1.45057463841425       -0.08129481769593
