30
 energy: -54.890517105455 gnorm: 0.000993688157 xtb: 6.6.1 (8d0f1dd)
N            3.89427873058608        1.98658549113553        0.97733368863748
C            3.21024461182918        1.14739883695637        0.58720940760050
C            2.49706870199206        0.02095936183948        0.18629220613680
C            3.10525056596751       -1.28873775806575        0.14163536423856
N            2.23507992593941       -2.21839643711494       -0.21701067562009
C            1.02689457636950       -1.62149212758880       -0.36270366073535
C           -0.01206065398966       -2.43874290614810       -0.74789032160432
C           -1.39813149890505       -2.29411948792726       -0.72862403825661
C           -2.23475135953092       -1.29448154445216       -0.29206087926286
C           -3.60257426214423       -1.60249028572547        0.00653823909357
N           -4.24007159613935       -0.60109221838016        0.55196011086931
C           -3.37422899007016        0.45352265797467        0.56239917125089
N           -3.82716710330641        1.65912771654077        1.04852167490546
H           -3.15857721108415        2.21134926617468        1.56638148809477
H           -4.71759535019263        1.55926080341769        1.51587813297760
C           -2.11086316179427        0.11625344640903        0.05589178696914
C           -1.12095720324937        1.08251042365163       -0.27633349336153
N           -1.59326874798142        2.33632981533869       -0.46736560657671
H           -0.96236361203693        3.07707877586206       -0.72774247379151
H           -2.58541753524493        2.48754430225027       -0.53141130190882
C            0.27942970541211        0.93055238727285       -0.35498502182548
C            0.97133127270306        2.12174416348602       -0.67355809777224
N            1.47895412356875        3.09758715377230       -1.01231410082934
C            1.15207920317481       -0.15904368443296       -0.12441790943652
H           -4.07014393103729       -2.56287459310920       -0.11010454105216
H           -1.92969588858345       -3.20040043792029       -1.00230174171648
H            0.33861733025888       -3.43294227108653       -0.99950442849362
N            4.38183739701564       -1.54833578639831        0.42651222168142
H            5.00096367307471       -0.80357914473307        0.69700382546275
H            4.71243590009827       -2.49601213679838        0.37911924312516
