31
 energy: -55.404574835506 gnorm: 0.000340562139 xtb: 6.6.1 (8d0f1dd)
N           -1.03467766277757       -4.22305267856075        0.15337239382003
C           -0.86476905804959       -3.08692553276170        0.15321138867351
C           -0.74234683643694       -1.67196715826877        0.15130753009803
C           -2.00819250312346       -1.08593013992791        0.15487851101876
C           -2.52217707340639        0.19376192571059        0.16171880551645
C           -1.88787377977766        1.52932763124106        0.07904264342467
C           -0.60015806816401        1.97689872868901       -0.01521310188213
C            0.69746152825822        1.41181911992571       -0.00901603406384
C            1.64701560420003        2.45976184865870       -0.17702959704078
N            2.30317710235232        3.38338479724680       -0.35782153199809
C            1.22384196344012        0.13309639634396        0.12899068115225
C            0.59667044446165       -1.22102483398009        0.18329167968008
C            1.62805744333880       -2.14130595172816        0.26908526712963
C            2.86922629016379       -1.47466996663583        0.29892388939610
C            2.61979648025542       -0.08172339392145        0.20924998972597
C            3.69241002291645        0.80917770265822        0.25931803181618
N            4.69139779055903        1.37627788069364        0.33708098128660
N            4.07665772425146       -2.03736666370280        0.39861166507744
H            4.89741153189659       -1.45411406952651        0.41969707038593
H            4.17498411457137       -3.03528342158996        0.46270058445611
H            1.51290593774403       -3.20770126404936        0.31867941389457
H           -0.55128936953438        3.06043162268373       -0.10299888271897
C           -2.95261756370119        2.47066142499728        0.08130312842426
C           -4.15570313434913        1.81841462601255        0.16861185062106
C           -3.91947779034753        0.42635612264564        0.21719367247208
N           -4.91231659274954       -0.50057625599360        0.25512529243541
H           -4.70080003333232       -1.45250200421234        0.49976627340632
H           -5.84057502343059       -0.17978756926202        0.46905419746895
H           -5.12920851553317        2.27355263321673        0.19492772965552
H           -2.81431011990818        3.53467360245840        0.02921607873613
H           -2.78488294978103       -1.84822442435703        0.15902431863058
