27
 energy: -46.921663054688 gnorm: 0.000547751788 xtb: 6.6.1 (8d0f1dd)
N            4.32517932889575        1.56766409191239       -1.51439590538267
C            3.65516488457675        0.75852546274049       -1.04611808200556
C            2.84963044653884       -0.22691388762309       -0.48175576193017
C            3.22490336683458       -1.54969236898242       -0.15252706206964
N            2.25997353401507       -2.25025074989449        0.40801884979549
C            1.15699677717391       -1.45866948751118        0.44624377238839
C            1.53074906678736       -0.07914083886038       -0.00798290914432
N            0.91601842138655        1.04893302780386        0.14018144851725
C           -0.26030828986661        1.51697061995177        0.43493039441870
N           -0.25825894180218        2.71507221021792        1.06433454368833
H            0.62138561089181        3.18098104514173        1.20822416244254
H           -1.11302521884859        3.22809994893878        1.17873820758579
C           -1.52659753906174        0.98675565826308        0.03525740574371
C           -2.60880272395954        1.76607256650229       -0.31513953410143
C           -3.73587908230513        0.95267242247020       -0.55735854738545
C           -3.39677127278029       -0.35292480623765       -0.29740697483426
N           -4.21340822331359       -1.43795189166681       -0.46954600477901
H           -4.00277744794183       -2.28091470789001        0.03929442623417
H           -5.19505027588151       -1.23463105626168       -0.56190932984893
C           -1.98102996094961       -0.40990369172644        0.05153766731321
C           -1.39002594493739       -1.59267418950147        0.40242361178858
C           -0.06967230887065       -2.03561575997699        0.62611376223755
H            0.01015312823290       -3.09460418637168        0.84703365222834
H           -2.08905251604898       -2.42256794931628        0.45728354102673
H           -4.70236317463767        1.30593677881947       -0.86492869970248
H           -2.60329729431235        2.83519818243637       -0.43414971968399
H            4.19556951133665       -1.98571091853202       -0.31495348192293
