28
 energy: -46.633296868634 gnorm: 0.000628461816 xtb: 6.6.1 (8d0f1dd)
N           -5.33476367012294        0.01043160642219        0.05816433397357
C           -4.18401740776523       -0.01601794103595        0.03479848028453
C           -2.79175905397779       -0.03597783227983        0.01036336296565
C           -1.98453201867267       -1.15276420707461       -0.03449002352511
N           -2.42814737570766       -2.43462670199709       -0.01221610911600
H           -3.41580466025987       -2.57777492698688       -0.14499155565141
H           -1.82216528084862       -3.17981009164112       -0.30893813763867
C           -0.58634708162650       -0.71596432526237       -0.01652951194616
C            0.39084015298834       -1.65757673334002        0.04031549255434
C            1.81034743635141       -1.64158474136881        0.10887859400176
C            2.76556513743835       -0.68111144513888        0.07282679943404
N            4.07837931691888       -1.14759967729398        0.13914790763837
C            4.84898802876650       -0.10698048838180        0.05524505583050
C            4.11745882556082        1.11533621603701       -0.06192402063937
C            2.78313305787559        0.79051994872961       -0.04819311177146
C            1.76105916896860        1.77107482111906       -0.11885704429946
C            0.40383337190488        1.74336187950243       -0.09096210870408
C           -0.61404839854060        0.75729087241373       -0.01691200204825
C           -1.94867333500788        1.13834273664096        0.02227647859938
N           -2.49203130757190        2.38808730890818        0.00574927133825
H           -3.47120397645289        2.45926875465347        0.22921613749805
H           -1.91928185593577        3.17021902486160        0.27313129483286
H           -0.02893616499776        2.73762164627344       -0.15555451560356
H            2.18376169319199        2.76815506942243       -0.19737946219194
H            4.54618785577525        2.09661037100697       -0.14004775047431
H            5.92104393444329       -0.20616485425390        0.07852946705679
H            2.24684636336955       -2.63154126026163        0.19574979760158
H            0.01923689093534       -2.67743246677413        0.05842133760004
