23
 energy: -39.227288495924 gnorm: 0.000543689318 xtb: 6.6.1 (8d0f1dd)
N           -3.43598885226444       -1.78504180645662        0.16780510727867
C           -2.81280777935708       -0.57803802673704        0.15001240885913
C           -3.46321513878801        0.66346853300868        0.30111810916319
C           -2.52888792029772        1.66233841509116        0.14863259272623
C           -1.24352959403406        1.09742785521370       -0.03491628824417
C           -0.13883397651386        1.88313190622516       -0.35366881484504
N            1.13388672486567        1.66057084309547       -0.22275256400844
C            2.00594065761350        0.72376660316388       -0.17531723578137
C            3.31914712968638        0.86749137302803        0.31982660635541
C            3.84691892607331       -0.40314655980150        0.41462703586828
N            2.94718196417248       -1.36851372436167        0.16213626090640
C            1.81705935527546       -0.80321984543886       -0.22965038536423
N            0.73029024283111       -1.46990367953575       -0.38853404378598
C           -0.55292203313375       -1.35424468251278       -0.47928186790625
C           -1.42494453942611       -0.35042832320924       -0.04545820424062
H           -1.02267496654690       -2.25281513085534       -0.88007359074934
H            4.85655589965084       -0.67728658442453        0.66504117104083
H            3.82250159885409        1.80228788697257        0.46847719590932
H           -0.35784967502044        2.91895738320828       -0.60718438969560
H           -2.72531918604498        2.71839088508804        0.18339257257098
H           -4.51943943266818        0.79080339530306        0.45087418071136
H           -2.88282370147995       -2.61885489086530        0.26109554316570
H           -4.37499881614751       -1.82359136899948        0.52498254936567
