27
 energy: -46.922334414130 gnorm: 0.000312774474 xtb: 6.6.1 (8d0f1dd)
N           -1.52352860364934       -3.32911177297992       -0.54209150671144
C           -1.03539451396426       -2.30693984420029       -0.34960467322506
C           -0.34816179184809       -1.08918405119415       -0.09007440766519
C           -1.23915539930925       -0.02487444259691       -0.06021998145378
N           -2.51027431469656       -0.33788153298310       -0.36945225325424
C           -3.25785425352836        0.75000713127182       -0.15213868189813
C           -2.48004384382472        1.83133883829469        0.33680813960646
C           -1.16843154271656        1.40043539796995        0.38190265868384
C           -0.12111885967241        2.23881379846317        0.78794410576706
C            1.24305649631532        2.14401845197209        0.71514386203718
C            2.13561258099465        1.16752735909859        0.26234615284987
C            3.48777938341513        1.49571668290515        0.06099676300551
N            4.21208100980140        0.46548433999556       -0.37010049464193
C            3.39925293746776       -0.58607715540357       -0.38794981804111
C            2.07287799108420       -0.26194722898570       -0.02752862591386
C            1.06728048723695       -1.24032348709787        0.05232552669281
N            1.48816841517615       -2.51491804101802        0.19080572215439
H            0.83789317654129       -3.27974571153573        0.10799241985406
H            2.47245219156276       -2.71070227514231        0.23448888059901
H            3.77618096960483       -1.52968879665255       -0.74372489135307
H            3.93292065239576        2.46678192471540        0.18102213774396
H            1.76095964080783        3.04908284943530        1.01983666658197
H           -0.48623119027112        3.19168715669010        1.15835746854382
H           -2.84931651051112        2.80602478048513        0.58930599069805
N           -4.57308420121668        0.74148410083075       -0.38800356459047
H           -4.98982084512084       -0.10088193465836       -0.74395784598957
H           -5.13723735357786        1.55400427062036       -0.21900198008110
