25
 energy: -49.055946707961 gnorm: 0.000784465810 xtb: 6.6.1 (8d0f1dd)
N           -2.02258476006197       -4.15715315336762       -0.99557969242683
C           -1.93753410742851       -3.05338173355747       -0.69332973592328
C           -1.82152839081416       -1.70432138107764       -0.34048931865450
C           -2.84593306762304       -0.77627056139141       -0.22164818830578
C           -2.32251682471430        0.47718391167755        0.16923788460568
C           -3.13355146832443        1.59438050043683        0.40948651253991
N           -3.86207302981134        2.45279129857642        0.63104041982372
C           -0.92073603469902        0.37757804201643        0.25761658826415
C           -0.60743974869886       -1.08209137437697        0.09206591455410
N            0.42543161016410       -1.73471478839027        0.45714303958333
C            1.66818734388348       -1.67086586730997        0.77706286253973
C            2.60680213306538       -0.79814998911638        0.22721986994501
C            2.39898140858959        0.57933972287173       -0.25043844477957
C            3.72423700387579        1.00757897211738       -0.56100514029190
N            4.62531024689961        0.07147873193218       -0.34349428900021
C            3.98212179266466       -1.00665878351124        0.13481353367501
H            4.51984415434468       -1.90531354277294        0.37247389652881
H            4.00977599225072        1.97795609718839       -0.92331571256361
C            1.35783545045777        1.48120487271130       -0.19881708998953
C           -0.02268533745430        1.43122095631152        0.09504175502307
C           -0.59811480265831        2.73388191089330        0.02677326175870
N           -0.97020272088815        3.81556747554529       -0.03015285857448
H            1.67228225503356        2.48681255730605       -0.47007722197186
H            2.01491918335901       -2.45939048778695        1.43864143478208
H           -3.88809470440664       -0.97188764942230       -0.40029358033289
