28
 energy: -45.842231826354 gnorm: 0.000807415753 xtb: 6.6.1 (8d0f1dd)
N           -5.05911445237880       -0.19427540232642        0.17051700529558
C           -3.71829264888751       -0.22645188337128        0.06636091292511
N           -2.98457943990163        0.87580770205428        0.21322426811165
C           -1.68715630273885        0.51931990008217        0.02543786698274
C           -1.61001307629420       -0.94453648268417       -0.25186472172070
C           -2.92657577396554       -1.36396887626754       -0.23544009670640
H           -3.29360961320982       -2.35903039258125       -0.39977157025804
C           -0.54545672005990       -1.81804131753081       -0.49335325870536
C            0.82337801455380       -1.69956481702832       -0.43703785691759
C            1.72695520897829       -0.67668298020409       -0.16722922452998
C            3.11283728958174       -0.96294127308295       -0.04893919852792
N            3.85017751569067        0.13676634945210        0.15941181810669
C            3.00708233689551        1.16493527757333        0.14639326987590
C            1.66222508495599        0.78576536348465       -0.02943657228894
C            0.61582655629808        1.71743566296595       -0.06471217398094
N            0.97265443783729        3.02363080838662       -0.15841196389017
H            0.27302308127489        3.74221881104494       -0.11066262325049
H            1.93608672553856        3.28721815655555       -0.24969175014186
C           -0.78631531582772        1.54770350277648        0.05038825951699
H           -1.30920219609099        2.49114348020457        0.18809676592812
H            3.40807038800180        2.14654282396772        0.33149474465717
N            3.73596429283358       -2.18268552508272       -0.15709583846696
H            4.69738499888513       -2.15297370057825        0.14610926202858
H            3.22471597406747       -2.98784134806794        0.16732384750103
H            1.32915075070196       -2.64147991739678       -0.63178418047618
H           -0.89165600715387       -2.82119236622530       -0.72511949350758
H           -5.58781202236502       -1.04705619129237        0.17677881605045
H           -5.49022447082111        0.65870690277149        0.47923312228882
