27
 energy: -48.510770558063 gnorm: 0.000650400565 xtb: 6.6.1 (8d0f1dd)
N           -6.10054018452497        0.00178820438293        0.00519400663311
C           -4.95342646610485        0.00146460378432        0.00401877684547
C           -3.54986589945804        0.00107415381299        0.00254032225921
C           -2.73449829551846        1.13971912213900        0.00049531171927
C           -1.38959566082847        0.74545396877526       -0.00051992536408
C           -1.39000583273013       -0.74450095492387        0.00102560880804
C           -0.39732315904420       -1.70490620666247        0.00095968970632
C            1.00334688216604       -1.71226631460624       -0.00048385863948
C            1.48258488818421       -3.05748395249092        0.00149828269610
N            1.80816262972796       -4.15619726104704       -0.00014397710773
C            2.01671198753793       -0.75149231405773       -0.00232411887100
C            3.36315074450399       -1.13413682907387       -0.00304051559518
C            4.17136797427522       -0.00105842247057       -0.00485093359542
C            3.36377333452919        1.13246686525671       -0.00530944631335
C            2.01712593531001        0.75056476745167       -0.00381111827079
C            1.00428878224178        1.71189697134534       -0.00393181391724
C            1.48426389377304        3.05685697933564       -0.00529815460665
N            1.81044259391030        4.15542742586134       -0.00783616849954
C           -0.39638266159680        1.70530996905903       -0.00254149553105
H           -0.80749920427097        2.71266125592710       -0.00316560634831
H            3.71587228106179        2.14668185247472       -0.00659687908485
H            5.24594987151734       -0.00135381456165       -0.00573041937925
H            3.71468989423142       -2.14854643657657       -0.00231183594209
H           -0.80899352643658       -2.71203019232007        0.00240727456112
C           -2.73512757596215       -1.13802111088235        0.00286018808911
H           -3.08684223718302       -2.15287975686380        0.00430604631224
H           -3.08565408521159        2.15477225953115       -0.00016880036402
