25
 energy: -43.479152673441 gnorm: 0.000814206764 xtb: 6.6.1 (8d0f1dd)
N            5.47328232469649        0.39097273434197       -0.66803426830497
C            4.35246827908870        0.33678238220961       -0.41941949350413
C            2.98837711150345        0.26194545307865       -0.12426767936473
C            2.20422504024646        1.27645526970916        0.43179718558373
C            0.88901878828297        0.81145797882832        0.54953129972957
C           -0.14842224649621        1.57333898866547        1.13010931630674
N           -1.40147582524296        1.61267459780902        0.83774310966815
C           -2.30390081175989        0.93539605983117        0.19968802637630
C           -2.30548912116644       -0.54314586936332       -0.22789886868306
N           -1.39852441451873       -1.44178695459035       -0.05320932974863
C           -0.14789233300469       -1.55126033251365        0.29230604666792
N            0.23573775480771       -2.77142186470841        0.72841757007740
H            1.20885925680751       -2.96487203525600        0.88220561728146
H           -0.43274375871239       -3.52227160409785        0.75256612361320
C            0.88653900484676       -0.57313389939532        0.10490773437192
C            2.18430978390332       -0.88718165001715       -0.27685724055248
H            2.52703526378812       -1.82937797190608       -0.66597132775448
C           -3.46727204768518       -0.71939381856800       -0.98593216361090
C           -4.15101800066568        0.48706782094595       -1.04403804307131
C           -3.44947911423229        1.48624464357970       -0.35933069693236
H           -3.74515983416579        2.51241562531100       -0.25917093707449
H           -5.09032523574105        0.63743192196917       -1.54658056920253
H           -3.78362852692228       -1.65447820043219       -1.40602427892096
H            0.16365433100374        2.36056447754147        1.81387308802244
H            2.54144643603938        2.26468319272709        0.68238326432595
