25
 energy: -43.468771769568 gnorm: 0.000951623383 xtb: 6.6.1 (8d0f1dd)
N            2.94340784949974        3.04441231258257        0.20393646462241
C            2.20712965368729        2.16554975629755        0.15780121237326
C            1.26786632758140        1.09874933036292        0.12565458137735
C           -0.05355421262402        1.57013988117745       -0.06005859722334
C           -1.30066272430509        1.01108068092153       -0.18727844121411
C           -2.43448547547537        1.85648291965183       -0.38176512665673
C           -3.58614592163168        1.12424685845707       -0.29201414676157
C           -3.24866849148563       -0.22364456740663        0.00086201890831
N           -4.15925094125017       -1.21007717666057        0.21005704968691
H           -3.84987192221677       -2.16642452672309        0.21319236343622
H           -5.10546684476685       -1.04510572392633       -0.08752260252364
C           -1.84860333389167       -0.33741516463904        0.05106004664671
C           -1.17373914040294       -1.49968194951395        0.42099503371735
N            0.01186349165807       -1.89949198761896        0.11427951155182
C            1.20926293176512       -1.50340616675895       -0.13791157810920
N            2.13921599029779       -2.34989087553071       -0.58440555053172
C            3.32164038139197       -1.72611261843677       -0.46617524924659
C            3.22243786024021       -0.41821464866909       -0.01263499313789
C            1.85295987743265       -0.16177912139372        0.14971022580948
H            4.02731600942811        0.27224056569270        0.14554233404811
H            4.22251531123031       -2.25574864292393       -0.72221747632429
H           -1.75190781780091       -2.25435286111013        0.95533228254767
H           -4.59081769750200        1.49516479335240       -0.38329460128664
H           -2.37032668817618        2.91206989351435       -0.57085724237873
H           -0.07466131448313        2.65327011270158       -0.16203568413115
