29
 energy: -45.561119716611 gnorm: 0.000895927166 xtb: 6.6.1 (8d0f1dd)
N           -4.27668042369682        0.68706309595322       -0.42004042452542
C           -3.18034767988823       -0.08571633940146       -0.12249465605442
C           -3.22952743347093       -1.34670008756226        0.47519148041720
C           -1.93290662237021       -1.76850255896109        0.70487248980559
C           -1.00865635896358       -0.77823478107860        0.29994261661916
C            0.37112286985902       -1.04825513473197        0.14271640760075
N            0.72241351023408       -2.36537044772587        0.22844140054008
C            1.46088398235537       -0.16718216313980       -0.10151765765251
C            2.78823953159329       -0.61095142220031       -0.32111152198451
N            3.21229367233838       -1.88928940342510       -0.67680219650308
C            3.68462887672427        0.44806838780397       -0.08769484423652
C            2.96083571674172        1.55504094810421        0.28233102434038
C            1.58022100250944        1.24858351964150        0.21776330802127
C            0.63301434425082        2.25542772713676        0.33174822011073
N           -0.52202677141754        2.38352167440237       -0.25648949698467
C           -1.46549263611607        1.59084665342148       -0.65719967158422
C           -1.82240197516657        0.32523641122720       -0.19657307351698
H           -4.14537480266311        1.42028746966743       -1.09840538273102
H           -5.14715940908492        0.18713978452431       -0.50238835805023
H           -4.12492682109160       -1.89511779242503        0.70655411361130
H           -1.70668961668960       -2.71712007271984        1.16213010131179
H            0.01551618727672       -3.02283924420681        0.50506314947244
H            1.67541437043009       -2.58338386516837        0.47371422361920
H            2.62009953088331       -2.34918305840608       -1.35539379518422
H            4.18557492565764       -1.90562008822771       -0.95094738705109
H            4.75376875437133        0.37819349368708       -0.18451888136681
H            3.35513220582642        2.53023882082886        0.50340364506109
H            0.96592076415218        3.17681420081429        0.80698215100993
H           -2.16594763658371        2.08941460556726       -1.32856612471510
