31
 energy: -53.035475784738 gnorm: 0.000967226000 xtb: 6.6.1 (8d0f1dd)
N           -2.75448536171441       -2.89296371853541       -0.31630624422236
C           -2.53050576189030       -1.55975275688044       -0.21248915503133
N           -3.55008816130805       -0.70617199706313       -0.19350011041485
C           -3.01136368684161        0.51896276473302       -0.00854737501435
N           -3.84298806319397        1.60281511813123        0.08651250483550
C           -1.60496001032558        0.49709095204775        0.05422483531699
C           -0.79594829487202        1.62169378721702        0.31819596696895
N           -1.39906639111109        2.69844497919816        0.92861086606570
N            0.41065376424000        1.88565891229404       -0.10967125813811
C            1.50814911292486        1.26681623062430       -0.44847028252947
N            2.38448144036655        2.04806867582448       -1.15305688677564
C            1.97332331829145       -0.00225806027735       -0.03006381503045
C            3.33077014918459       -0.36134159515811        0.10213540694153
N            4.43930201296360        0.44473486311282       -0.04375162240501
N            3.49183749177541       -1.66756615774549        0.39777469684902
C            2.27082565687908       -2.18604216341524        0.42872035465785
C            1.25321396535499       -1.23513492955078        0.19999074091891
C           -0.08401035296936       -1.61622512449534        0.08395674002983
C           -1.25367186068950       -0.90964007988773       -0.07405392097307
H           -2.00992026733209       -3.48473535550708       -0.64115414558991
H           -3.69320302497507       -3.15745901535691       -0.56257689291750
H           -3.46017385777106        2.48068163741054       -0.23150681282363
H           -4.78102322584055        1.40416343923670       -0.22822834633872
H           -2.16721453481141        2.49919895214782        1.54877928289763
H           -0.76763708299847        3.42996530821344        1.21600592945823
H            3.13206677782786        1.58628636152784       -1.64242863294344
H            2.00489958870737        2.88754193552867       -1.55911932944818
H            5.26990859393377        0.00882040882515        0.33140822267193
H            4.31439771664777        1.40457481134300        0.24540748355226
H            2.13107457930265       -3.23533893728593        0.62249704179902
H           -0.21326674105545       -2.69395612235422        0.13970606673297
