29
 energy: -49.576162372695 gnorm: 0.000789975675 xtb: 6.6.1 (8d0f1dd)
N           -4.42588067217262        1.04878823494448       -0.29673107098909
C           -3.39018343613703        0.21332451738400       -0.02281474653522
N           -3.62369819339352       -1.01487908205674        0.45784028664528
C           -2.42763414180395       -1.59156289660909        0.58452207361465
C           -1.35095132351772       -0.75701862149557        0.23453142074051
C           -0.02136688905146       -1.23287335318650        0.06687681234655
N            0.11912829734026       -2.59100218944126        0.07709806699072
C            1.16352992632144       -0.49863586119145       -0.13094781888136
C            2.44201649414969       -1.09601815265882       -0.30112647017311
N            2.74065433484601       -2.40604960212331       -0.60767902992226
N            3.46049469795493       -0.24713244055535       -0.09181273647200
C            2.91070614225962        0.93153356853340        0.21191799947437
N            3.69593061820165        2.01905949821940        0.39659398144345
C            1.48313041191618        0.89520958791410        0.15784383459273
C            0.71760791411177        2.04008781504589        0.29033763430622
N           -0.44103011199162        2.36467068315925       -0.21860487430645
C           -1.51173883180979        1.71936549004552       -0.57103290404581
C           -1.99633973253558        0.47984276232670       -0.16152007660888
H           -4.24913980857022        2.03458339333297       -0.37339221113977
H           -5.31568003947960        0.77104465436203        0.08212658994718
H           -2.40299700109337       -2.59965033794500        0.96470116694434
H           -0.68969293537514       -3.13698782311371        0.31723456133224
H            1.01765216226364       -2.96713210605937        0.33855231436271
H            3.73378560934589       -2.52057823456001       -0.76445217648495
H            2.17438136792556       -2.81230885655224       -1.33981663984678
H            4.67720271999903        1.83383803082435        0.51783843918916
H            3.31242721924458        2.82064194296606        0.86693090495580
H            1.20700871259648        2.89796023474009        0.75247802415552
H           -2.19109081454510        2.33491233334990       -1.16130926163589
