22
 energy: -39.523346986439 gnorm: 0.000694583129 xtb: 6.6.1 (8d0f1dd)
N            4.31714699787312       -0.75875849531595        0.35454739900949
C            3.05257236308779       -0.41295262243808        0.11234300837760
N            2.14624945893904       -1.28553924564303       -0.35848885986311
C            0.99041932577976       -0.60451283098355       -0.37577085512421
C           -0.21491029320909       -1.26685061120265       -0.48346444900188
C           -1.52007842664011       -0.88250571397758       -0.18878748997666
C           -2.56314321177161       -1.80207064096190       -0.09180080313910
C           -3.68434113275810       -1.10239093554691        0.37513516995568
N           -3.44464692454187        0.18101526126917        0.56934365488826
C           -2.15027467294729        0.41049051234069        0.21621442249241
C           -1.75823554903765        1.71833694623846        0.12349878955537
C           -0.55766236859455        2.29952055252278       -0.34750016013034
N            0.66266922503808        1.91186628284323       -0.27045197438989
C            1.32675761756480        0.81547290377116       -0.03089413007014
N            2.60904212815966        0.84532526033138        0.32205901532828
H            4.62200366702111       -1.69289551411273        0.15129453004765
H            4.95097274910922       -0.06671743318525        0.71001366024725
H           -0.09166416109340       -2.33212644712139       -0.65271096773577
H           -2.51013608122013       -2.85104038103785       -0.30971920041375
H           -4.66142929729136       -1.50698678638771        0.57462471255659
H           -2.55080899084141        2.42014251285218        0.35747496338335
H           -0.66111417412591        3.29991005714550       -0.76550756619696
