30
 energy: -49.302483323406 gnorm: 0.000570185207 xtb: 6.6.1 (8d0f1dd)
N           -4.52439002711743       -0.85370509984699        0.36342797979180
C           -3.53518579809986        0.04486394131022        0.07102932377673
C           -3.75304535907370        1.38777343319963       -0.25731500532527
C           -2.52231749876437        1.98896292965642       -0.43838889070071
C           -1.48462954727968        1.04725135685269       -0.26072846128195
C           -0.15820691173539        1.46887569237322       -0.21098816284826
C            1.04763089580702        0.82980068392869       -0.00825900519657
C            2.28486767829461        1.54948213718991        0.08394148082547
N            2.44791817243470        2.90009213807479        0.07588604975302
N            3.34883952997399        0.74886983022594        0.14526950814964
C            2.87602177059018       -0.51018636350831        0.05516634556529
N            3.75825769572187       -1.56035389608458        0.05517550445756
C            1.46957379513882       -0.56389004358144       -0.02338829994273
C            0.72166121695175       -1.73506581972022       -0.24619867767947
N            1.38347734017275       -2.81019618174612       -0.79254433842551
N           -0.48642568800993       -2.04396087607111        0.16572840825779
C           -1.60732936459186       -1.44613373869617        0.43218380633173
C           -2.13190629600781       -0.21170241315913        0.06448486834453
H           -5.45633442939605       -0.60368641042438        0.07696146261042
H           -4.30420787039263       -1.83367044532052        0.31232000970696
H           -4.71578029830450        1.85931925580073       -0.33974705396748
H           -2.36444698239925        3.02893401734070       -0.66615037577489
H           -0.06355510599009        2.54312399235352       -0.34821926850079
H            1.68201485909553        3.47120944264288        0.39032329938032
H            3.37149246662362        3.21454064362133        0.32383673595979
H            4.68000856561103       -1.29290511323132        0.36834071479181
H            3.41040479742242       -2.42112704149828        0.45127351200230
H            2.17339412553500       -2.61588946268459       -1.38552060790567
H            0.79795862368885       -3.58960462572865       -1.04869890763421
H           -2.29482277449998       -2.10975520506964        0.96075704557913
