24
 energy: -42.958489526987 gnorm: 0.000972705852 xtb: 6.6.1 (8d0f1dd)
N            4.51514824402537        1.30506260344947       -0.43264211816941
C            3.34369591493841        0.70046149173937       -0.15351401507664
C            3.03381380896359       -0.63750333030975       -0.35192138128435
C            1.72456992858147       -0.87592337596724        0.09369652691697
N            1.21693548073079       -2.05789887588804        0.19761165192925
C            0.00699230437114       -2.47188726714513        0.51496856570943
N           -1.15333363093428       -2.03257740644543        0.14035665716562
C           -1.67391965198595       -0.86217279188954       -0.08562984496160
C           -2.91570677536299       -0.57331736215871       -0.61759227742214
C           -3.27577082974372        0.69197979159101       -0.09455042904476
N           -4.44558075679851        1.32183253622421       -0.28420432124207
N           -2.31550967440148        1.26712349857277        0.64581199926014
C           -1.24214264993547        0.46972350027907        0.56891575131569
N           -0.05860894456909        0.92021664791217        0.78515713700306
C            1.15979867651544        0.49347113593648        0.50815819749960
C            2.19840922018523        1.37991189065161        0.36248677400224
H            4.66511986719434        2.25694037484232       -0.15070057756799
H            5.30515380242537        0.75724607020542       -0.72317600511803
H            3.69644860929397       -1.39799298721024       -0.71762204410495
H           -0.01421184470684       -3.44644559947364        0.99996549015106
H           -3.53284679044584       -1.20895455210085       -1.21999131235921
H           -5.18655589109101        0.88323486193001       -0.79822768544402
H           -4.61939893897661        2.16736341263937        0.22934065885915
H            2.14230786232666        2.43297199901477        0.56202186138318
