24
 energy: -47.760370585064 gnorm: 0.000686197960 xtb: 6.6.1 (8d0f1dd)
N            2.70505127593218        3.04674160018266       -0.59600200490160
C            1.91978323345390        2.23372983892643       -0.39466815414602
C            0.89346013593277        1.30058154744323       -0.13193991607978
C           -0.42412386666048        1.86781785902265        0.02534389680230
N           -0.49601165406581        3.11288001141479        0.54999477006871
N           -1.54261922878190        1.36005689441941       -0.39760424895079
C           -2.20494821864851        0.26400890236533       -0.42273076680038
N           -3.42415316034384        0.09112384497430       -0.91882042181002
C           -3.88892803135729       -0.99390440926152       -0.27283457859574
N           -3.08092837584568       -1.62947316404005        0.55365670607559
C           -1.89310546794860       -1.00395281180159        0.40748216828782
N           -0.76242479203995       -1.53932826255155        0.63612906964028
C            0.50048039215192       -1.26704818234273        0.34041225228235
C            1.43067013551987       -2.27914397404712        0.24071119591472
C            2.68173429041344       -1.66271973255547       -0.05597602215440
N            3.85794746060078       -2.27947374527493       -0.19205910784255
N            2.57295151814027       -0.33962908787949       -0.17783230691237
C            1.28202668284185       -0.01577956737296        0.01751416186876
H            0.34485577555410        3.64600681889612        0.69538868798007
H           -1.38184136583704        3.58928560380833        0.52962084665879
H           -4.90029706188535       -1.32587278668995       -0.42825445971888
H            1.24924558634356       -3.32463031584280        0.38513722381126
H            4.67470300804837       -1.72210038859902       -0.37405010002388
H            3.93100926338182       -3.27803854909412       -0.12252624695414
