26
 energy: -51.998747192845 gnorm: 0.000868242308 xtb: 6.6.1 (8d0f1dd)
N           -3.26847975156236        2.97447078097626       -1.26104596363924
C           -2.68683273593296        2.07680956146786       -0.83821438474028
C           -2.07551880908166        0.93759507276072       -0.32669043671719
C           -2.79411095629915       -0.17683383829126        0.23538008579272
N           -4.11920250612942       -0.27071976475623        0.32702157367139
N           -1.97975953958596       -1.12818854251676        0.67949909792999
C           -0.72198723742586       -0.76978957252298        0.35224491665965
C            0.23925285250315       -1.75245949578697        0.26751922684508
C           -0.17310972670361       -3.05147985397097        0.63851396209197
N           -0.43987613702011       -4.13245986669315        0.92029160245396
C            1.56923429331191       -1.68960280171736       -0.32560676989282
N            1.95259579823448       -2.78585420640601       -1.01995149368994
N            2.45937738635479       -0.77040239462039       -0.16334854721793
C            2.55178161418710        0.50861124540509        0.05013374033671
C            3.68630857406814        1.17944061312429        0.49238479178091
C            3.35657505621326        2.53839099943624        0.50895642350337
N            2.08971941817325        2.78850369864265        0.19857585484496
C            1.49867324771779        1.61589641359757       -0.06441140129005
N            0.22426223659068        1.55114274575647       -0.21937071073070
C           -0.71381355716407        0.65101886245228       -0.15453280229916
H           -4.70910220070417        0.45831480617903       -0.03588303159432
H           -4.51911285924626       -1.06950042524874        0.78854448122629
H            1.40117120091886       -3.62669665979573       -0.98380484281106
H            2.90522813606948       -2.84049422646897       -1.33906820393466
H            4.64407521887244        0.74351075180661        0.69545037733939
H            4.01993229993656        3.35517224798942        0.73465004517919
