32
 energy: -48.714573555544 gnorm: 0.000596454112 xtb: 6.6.1 (8d0f1dd)
N            3.00545720131692        2.28261602769165        0.61293140121842
C            1.82284768224875        1.70349603263828        0.24647803386884
C            0.75369829528357        2.60705324259874        0.16027283406644
C           -0.58307819852318        2.49559665695963       -0.14315091631651
C           -1.51032301667193        1.46172503597387       -0.22687429712666
C           -2.85718529152909        1.78078479454689       -0.51263693779756
C           -3.64059020958580        0.65577348004856       -0.38572007460214
C           -2.82003117089597       -0.40501643664709        0.01682533890721
N           -3.30143289888841       -1.70192479100752        0.22558521899024
C           -1.48009185865092        0.05058782570105        0.11762004021429
C           -0.41743154649130       -0.80252988770061        0.47813759111330
N           -0.76933651898576       -1.93084201912152        1.15001160453235
C            0.94455586555874       -0.75480167275908        0.07192746691570
C            1.65223336773669       -1.94738058624964       -0.21347055510559
N            1.15781299078105       -3.25924384569016       -0.20368895489905
C            2.96311644131234       -1.62787231365125       -0.57460728952016
C            3.12375206607224       -0.26479318069549       -0.44256582065719
C            1.89679936961098        0.32668250156648       -0.06623728184869
H            3.09601067522172        3.28344184041780        0.59436697976665
H            3.84511032334228        1.73328878720248        0.59465816259109
H            1.07709422989813        3.63625079169641        0.29558933146858
H           -1.05235480745493        3.46147223189106       -0.31391050238566
H           -3.20448884113941        2.76160286077307       -0.78443337892006
H           -4.70022316821002        0.58419423537907       -0.55809054611855
H           -4.24692689764702       -1.80145685205440       -0.12239413612103
H           -2.70157270652474       -2.42863396522369       -0.14463097972288
H           -1.67414825167363       -1.96211414127546        1.58954419425329
H           -0.03425112345216       -2.51713546009058        1.50756859127334
H            1.76088074105372       -3.88123985676714       -0.72685218613740
H            0.19941093892966       -3.33617286002940       -0.51940161545715
H            3.70840445109478       -2.33296625224951       -0.89756052928187
H            4.03208059716220        0.25782208912750       -0.68885770546180
