25
 energy: -47.475432560540 gnorm: 0.000908036199 xtb: 6.6.1 (8d0f1dd)
N            3.72820591192436        1.77361594837639        1.33657464202758
C            2.80307182755156        1.24261720079214        0.91061604324624
C            1.62120511404542        0.69019529552076        0.36761128500247
C            0.73661971388551        1.67652591196752       -0.26274566365778
N            1.37500294251437        2.71620366797777       -0.85221992520222
N           -0.54721369717490        1.73221161412111       -0.24736190309529
C           -1.55442547099655        0.89780497154221       -0.08105978383631
C           -2.83112944202150        1.26746607652609        0.26719856292358
C           -3.62440521704140        0.08887999916461        0.18421178594734
N           -4.93667043232837        0.00052172257226        0.42292050744146
N           -2.92165593070563       -0.99013399059415       -0.17642161892178
C           -1.64482351282741       -0.60388659505195       -0.31354580089285
N           -0.73969559211751       -1.49228809434853       -0.55200496209964
C            0.54753206725576       -1.58287062704107       -0.35017891367546
C            1.29416269178389       -2.73839895088278       -0.56743375568196
C            2.49625840097880       -2.57744685153662        0.13971437510427
N            2.61097545648194       -1.40355741857543        0.73626220828764
C            1.52621331242339       -0.67596799568859        0.36518347187926
H            0.81435713213542        3.47898291070112       -1.19288386805145
H            2.35888417710136        2.86078557022199       -0.70029269732617
H           -3.18086857534510        2.25100393958210        0.51003785146865
H           -5.38302773065811       -0.89263716701647        0.31012786122713
H           -5.46831525878722        0.80233384554674        0.70789655761178
H            0.95856402801020       -3.61945477772069       -1.07578720983970
H            3.27937902500799       -3.30806044874485        0.24679208971211
