24
 energy: -47.773409839399 gnorm: 0.000735474763 xtb: 6.6.1 (8d0f1dd)
N            3.12040530366942        2.90982162921603        1.29307599588109
C            2.69572736087084        1.91844932973485        0.88962477063711
C            2.25684536869168        0.70374968011300        0.38020210807715
C            3.05360599261585       -0.17560311620348       -0.42181053658806
N            4.31851177574097        0.04626545996641       -0.77385621095445
N            2.40252321903316       -1.27591360090119       -0.82837056433799
C            1.21541003794219       -1.26007581442324       -0.22484016544015
N            0.50638183454396       -2.29045867467055        0.03120085059431
C           -0.64443729794798       -2.52477415253169        0.60315377558438
N           -1.81294109891478       -2.01886615651683        0.31962568493882
C           -2.19316747983135       -0.80927792862442        0.09623893126377
N           -3.41809284294834       -0.50744889543599       -0.32773894231969
C           -3.53657558978764        0.82887730744775       -0.28874817901136
N           -4.68757231783696        1.41727868686840       -0.61979646508163
C           -2.33966904460997        1.48416818769891        0.10860382100669
C           -1.41216350702757        0.49661612138930        0.36162550903595
N           -0.14183650105984        0.75114508258445        0.58191137935668
C            0.97265560428160        0.13494214905338        0.40474455561178
H            4.78032034831028       -0.61841000043291       -1.37009319794427
H            4.81098426158055        0.84944234686019       -0.42292570916905
H           -0.65950528992371       -3.39164530162792        1.26020367579685
H           -4.79353209900176        2.41433776528363       -0.56702596238955
H           -5.46956366449989        0.83540675027487       -0.86615019005121
H           -2.18881462029446        2.54188315797494        0.18751985600419
