25
 energy: -43.466125876243 gnorm: 0.000596771445 xtb: 6.6.1 (8d0f1dd)
N            3.78934564947948        1.68612988705614       -0.12145844953882
C            2.72904684890040        1.24771696197243       -0.06448679622411
C            1.39849702545057        0.74654301092964       -0.01089718216630
C            0.43037323231513        1.77924730203791        0.03030942216959
N            0.91487596845632        3.05785574554866        0.08701347188256
C           -0.97469667602452        1.71786663927945        0.03262253763776
C           -1.93780216245030        0.74074291803295        0.00468112793343
N           -3.22554323293174        1.18879644603254       -0.00862012111507
C           -4.01889333865223        0.13080536223491       -0.03416169923860
C           -3.31119602106834       -1.07590844691248       -0.03215191114448
C           -1.95233426667508       -0.73976224131787       -0.00739886519861
N           -1.03172353497918       -1.68024633882482        0.01269782845009
C            0.25879049991268       -1.68864672900092        0.02101100064483
C            0.90637205474094       -2.95415502609392        0.03818454752026
C            2.26840731892767       -2.77348439080730        0.01747786319050
C            2.54708336885669       -1.39887262587115       -0.01230878916663
C            1.36282691352197       -0.65938035992387       -0.00471654011384
H            0.27838128943471        3.83106689819428        0.02680182937629
H            1.90002470077279        3.24187298334766        0.01703537254285
H           -1.43976585389121        2.70028590903846        0.05104146250138
H           -5.08720817754970        0.25772955710488       -0.05205165199346
H           -3.71104875719730       -2.06988680310996       -0.04694542151441
H            0.36998817440397       -3.88270936885897        0.05949854608332
H            3.01300533104858       -3.54886292387804        0.02306641519380
H            3.53825238199769       -0.98390294731081       -0.03135037291243
