26
 energy: -47.203047803878 gnorm: 0.000764355183 xtb: 6.6.1 (8d0f1dd)
N           -0.32685019036150       -3.47254499303408        1.27950966146093
C           -0.10321604422025       -2.41748112917343        0.89047236334650
C            0.12374256719640       -1.07739187404469        0.47244585468938
C           -1.04849580891952       -0.32329693308935        0.26037230460917
C           -2.30433917915718       -0.88971176197864        0.20018261084905
C           -3.22562701145236        0.05328696363036       -0.34605258032123
N           -4.52431116244987       -0.20980906027927       -0.57840436545685
C           -2.55285583888402        1.24164876183386       -0.60395079727044
C           -1.22314838001238        1.11112633654819       -0.16936984888479
N           -0.46475606868659        2.14645942355092        0.01120616613866
C            0.80484654349149        2.30655626538733        0.35311900975550
N            1.06515921905122        3.39615370715595        1.12152146413958
N            1.85200015624380        1.68634191106236       -0.13895473016790
C            2.10905172717386        0.43053295873327       -0.38221585170801
C            3.30436901500803       -0.03205432004246       -0.95370389907307
C            3.36915921255946       -1.38769768028069       -0.66491345824723
N            2.29373173224800       -1.84860699040303       -0.01494823189715
C            1.44515958853179       -0.81787279958359        0.12312660137189
H           -2.54951671154643       -1.90485020306338        0.45286791219397
H           -5.12677851830296        0.49870571313254       -0.95653873470293
H           -4.92511622515764       -1.07933274138530       -0.27570283751289
H           -2.97996972576579        2.15001425188384       -0.98057168400219
H            2.01717714246626        3.71475068778192        1.17480979554029
H            0.32340134755754        4.05868555683464        1.26688217832690
H            4.05007951950641        0.57103576728188       -1.43058517148073
H            4.16923033438323       -2.06577228085823       -0.90582311389583
