27
 energy: -46.137838568158 gnorm: 0.000857446600 xtb: 6.6.1 (8d0f1dd)
N           -0.69061400435334        3.05493458982815       -1.12346588746396
C           -0.34872959686090        2.05440897531250       -0.28728955066798
N            0.72388132250902        2.25414478470403        0.44051196433164
C            1.67934085515282        1.52201580435132        0.90607427575363
C            2.12615422485362        0.27651612468730        0.45420787750544
C            3.49304041009869       -0.06787919291585        0.44254334316082
N            3.71419504844972       -1.22935234558539       -0.15931484278850
C            2.51278723143892       -1.71667616219488       -0.48812477038478
C            1.45617357782756       -0.84994249696670       -0.15941416268151
C            0.08288007896955       -1.23714607405827       -0.16323266637624
N           -0.15583565942727       -2.55077964866452       -0.36241792978998
C           -1.05467965490394       -0.43452290399330        0.05856152420293
C           -2.38118988698089       -0.94313037807568        0.19712364865756
N           -2.76977322492823       -2.26616672602947        0.37899864348659
N           -3.30885853690294        0.00955772469953        0.11796612434051
C           -2.65514679774020        1.15579081311886       -0.10414407990862
C           -1.27209756569062        0.98732251658750       -0.11792532120155
H           -0.13456532717054        3.89296843557217       -1.14230726667340
H           -1.59329827179789        3.04645437979209       -1.56487260350836
H            2.30253741646929        2.03021274383453        1.63931801429424
H            4.30800911142930        0.53841163939547        0.79487295107904
H            2.46941053569250       -2.67427934909272       -0.97975352355131
H           -1.09862406225389       -2.84614191377222       -0.56913541833202
H            0.61008483700740       -3.16316922309886       -0.57778613561966
H           -3.77504971243820       -2.30837389634690        0.49961257188057
H           -2.28897963727944       -2.73315027899226        1.13884118483874
H           -3.20160813376971        2.08030557490347       -0.16744929748383
