26
 energy: -47.217110065328 gnorm: 0.000300399664 xtb: 6.6.1 (8d0f1dd)
N            4.10352211206693       -1.52907349340874       -1.30900365332211
C            3.26975162377708       -0.86348540194051       -0.87703871019855
C            2.31057510983280       -0.00239005778627       -0.35821937017516
C            2.53984062444789        1.35840157609711        0.00720655277809
N            3.69650394359830        2.02077568073856       -0.12935713808106
N            1.45097129858295        1.93800057379565        0.51660994658447
C            0.44719494938328        1.03504907672545        0.46951421778164
C           -0.84382429622593        1.47833615104036        0.68577001545023
C           -2.07446543231886        0.94170635833784        0.31722099201621
C           -3.23042997526644        1.69657456315268        0.20872932763395
C           -4.19430940085637        0.98314968461422       -0.54258874190111
C           -3.68989197080942       -0.23509190101204       -0.91584641962606
C           -2.40313843022526       -0.38555828268838       -0.32024075591270
N           -1.85263539233929       -1.54068783509503       -0.20130593427942
C           -0.70312422673752       -1.95243862298254        0.33952331425243
N           -0.77653030885205       -3.12808673165706        1.01114410688361
N            0.49505162401304       -1.48449835073574        0.11951152558949
C            0.97989342784622       -0.27298866927370       -0.00100466263878
H            3.76150599707967        2.96238476733586        0.21285497385841
H            4.50334211310447        1.55918568241731       -0.50939423682879
H           -0.88117745836252        2.51213531491929        1.01249281122613
H           -3.35451713577412        2.69764204274043        0.57874028812582
H           -5.17237938569721        1.35827177298291       -0.78765796358988
H           -4.19042249410155       -1.01087326524584       -1.46126286749723
H            0.08564176562048       -3.61025290825791        1.19990576248588
H           -1.62611865778387       -3.66124644371180        0.94498350258564
