27
 energy: -46.921294524631 gnorm: 0.000740495324 xtb: 6.6.1 (8d0f1dd)
N            0.13043541710271       -3.36301092861439       -0.00333168997325
C            0.11712778567910       -2.21620084130662       -0.00789734333466
C            0.04970755537985       -0.79284056125697       -0.00903983298948
C           -1.25472262052433       -0.27362940305484        0.00051295475036
C           -2.36386193088788       -1.10224397281108        0.01301787859121
C           -3.55073000954114       -0.32832977110576        0.03264556598000
N           -4.80169893019968       -0.83547285751681        0.01611061174679
C           -3.19353854898028        1.01620247175833        0.02935889869009
C           -1.79221038960063        1.13759887094101        0.00844612032511
N           -1.29034542126857        2.33768332513086       -0.00106575467653
C           -0.08893244020481        2.87495296856107       -0.01597364806419
C            1.21740168356132        2.42228036461503       -0.01496549902081
C            1.82907788624029        1.16559227801688       -0.00867304750850
C            3.21410698788249        1.02070393235669       -0.00429463713394
C            3.48395534477590       -0.36250316048024       -0.00600384103654
N            4.68862310631584       -0.96517443672079       -0.04538700807481
N            2.35545654254844       -1.08317165013742       -0.01015181768582
C            1.32112022704047       -0.22172444407059       -0.01167947668155
H           -2.34048143181006       -2.17696597872922        0.00997639204504
H           -5.58710722584886       -0.22452050935252        0.15250547339453
H           -4.93758191530742       -1.82282969856857        0.14248079723262
H           -3.86161598418660        1.85527865419122        0.03935454866331
H           -0.17005779054113        3.96313885652893       -0.02734972947844
H            1.94476760188264        3.22889329421140       -0.02081788913676
H            3.94173346147184        1.80928763818496       -0.00183100153291
H            5.52080840900591       -0.43726387156327        0.14642652286707
H            4.70620069501373       -1.96323306430778        0.07318391774066
