27
 energy: -50.937225476472 gnorm: 0.000625505427 xtb: 6.6.1 (8d0f1dd)
N            4.44843126877829       -1.00840340598526        1.65514482280449
C            3.58521478456350       -0.48942489197591        1.09638854479471
C            2.58141324282275        0.18599585005229        0.41675429674935
C            2.72241785265449        1.49452792165458       -0.17275843369538
N            3.84307367053449        2.22141011207732       -0.13857445206868
N            1.62625392769844        1.91587793481131       -0.78529432164879
C            0.66441361430074        0.99288645570050       -0.56022110174245
N           -0.56964231752283        1.31185863458050       -0.65835291155151
C           -1.72148206806997        0.74222349338862       -0.31617987495811
C           -2.84919608349661        1.50862150546701       -0.13755634846320
C           -3.90717745265423        0.61222527139089        0.20566224221266
N           -5.18259685203234        0.95958029964334        0.43188734450537
N           -3.50420371373721       -0.64894603444635        0.26560896945342
C           -2.17309168596611       -0.66327277534989       -0.01797752597370
C           -1.52217888711750       -1.85824611752545        0.02440270634822
C           -0.15573729611838       -2.18010279818166       -0.23713983284161
N            0.08018495991243       -3.43865147770861       -0.69374453886138
N            0.91884955589063       -1.48913181929091        0.00671298996246
C            1.30882994844740       -0.25249022377875        0.05048758975429
H            3.85499224967262        3.11482695436404       -0.59763016127268
H            4.64107084858215        1.90197766088550        0.38165841410206
H           -2.92273992502782        2.57168594795606       -0.24757413430239
H           -5.84470987106218        0.24302241553852        0.66900333142752
H           -5.46055861251268        1.92327816489687        0.43099497795087
H           -2.16498216402513       -2.70393927052656        0.23561499739635
H           -0.66307357973020       -4.11048249218156       -0.74896752706384
H            1.03324165732335       -3.74941579043886       -0.76709788411984
