22
 energy: -44.311945957373 gnorm: 0.000694305828 xtb: 6.6.1 (8d0f1dd)
N            3.59817625130061        1.80477722714571        0.96362023600608
C            2.61888904054077        1.28870235220855        0.66278501393095
C            1.38452687906479        0.73069753402901        0.25529535731403
C            0.37708035408658        1.69634698654727       -0.13670662635678
N            0.80592575896841        2.82967382704371       -0.72138578241602
N           -0.88006453631956        1.62491778356783        0.15575451000916
C           -1.84074466379072        0.77265026801852        0.29066569381656
N           -3.03333560748952        1.11933894014613        0.79043767347065
C           -3.84121806991959        0.11493517943240        0.45682452387682
N           -3.29968609553568       -0.90557694006329       -0.20606293754251
C           -1.99103397235992       -0.61803567350310       -0.27967118755976
C           -1.05577052810560       -1.57868146787733       -0.58547594426145
C            0.31221138332306       -1.62221552635471       -0.32521250075350
N            0.93520637569291       -2.79863662728400       -0.39346392075789
C            2.16966251337815       -2.58776959627537        0.08976968085469
N            2.44288818045027       -1.35761294080055        0.47048041540667
C            1.32149598731675       -0.64393193474193        0.20011433247613
H            1.79001233891156        3.02628590360997       -0.79852033610555
H            0.14026608015550        3.56745470214038       -0.88351014131495
H           -4.88669838957499        0.13139445432470        0.70640327333105
H           -1.46639781133436       -2.53288589794352       -0.89646402600019
H            2.89024170063844       -3.38132346347179        0.16149101997665
