27
 energy: -46.921931052842 gnorm: 0.000718447248 xtb: 6.6.1 (8d0f1dd)
N           -2.48042189470955        3.13474064157173        0.59661039786594
C           -1.72933912022640        2.28903744679227        0.38768150210236
C           -0.77231028974402        1.28865422742055        0.11197118964157
C           -1.24348663392465       -0.02128120266056        0.13500248118910
C           -2.59242688010583       -0.30343490913060        0.39462547757273
C           -2.86160008963239       -1.63206931312824        0.06452522031091
N           -4.05057904724158       -2.26444236706262        0.18754018023944
C           -1.65954770189061       -2.22583282959612       -0.37750440043616
C           -0.62052688515757       -1.30144124125897       -0.30417463201648
C            0.69500519036250       -1.71468593565125       -0.49690765954842
C            1.91694217169273       -1.15186876452434       -0.19213747307430
C            3.11165183052729       -1.87963675553646       -0.05595533171548
C            4.01613064827958       -1.03516663914689        0.57676846292320
N            3.53297480250869        0.19194685573114        0.79469259837329
C            2.28701213631890        0.20792878247474        0.29876081752927
N            1.69015345433064        1.34835450772379        0.12463476969717
C            0.52823663365803        1.82558841235352       -0.19390155949895
N            0.55915608106293        3.06179483089645       -0.76465708681807
H           -3.31621844246282        0.41056517328993        0.74031847565238
H           -4.87178810390750       -1.72484629177794        0.39727147147591
H           -4.17741999939246       -3.16512790517673       -0.23872044235449
H           -1.55311842411225       -3.25379076987787       -0.67228656693755
H            0.76429943343206       -2.75862576774822       -0.79408191600044
H            3.27099211826058       -2.90380211092721       -0.33378461544567
H            5.01933347646169       -1.27351650505485        0.88488302174753
H           -0.27537033055558        3.62340191893906       -0.79523076000036
H            1.45138837564886        3.52833746667376       -0.78225592956744
