32
 energy: -59.126490883686 gnorm: 0.000978775057 xtb: 6.6.1 (8d0f1dd)
N            0.15290232254200        4.10856503792083       -1.11479278262322
C            0.13652754040701        3.01707308950974       -0.75877340298771
C            0.09544660698105        1.64987394196710       -0.37215796558371
C            1.34861337757636        1.09908975703721       -0.11504748032539
C            2.47540500493972        1.92458300336857       -0.00010647558074
C            3.58363161036570        1.15196591770092        0.35365342940170
N            4.82112754824413        1.60451812440470        0.62693484178439
C            3.17594779063876       -0.20028779245952        0.39645267536192
C            1.82456622828228       -0.29585519446474        0.10008295291681
C            1.23819243686981       -1.56143543694717       -0.13660018440983
C            2.22878004765499       -2.56898201093261       -0.27568089884527
N            3.01555002203546       -3.39698760459420       -0.40607487354002
C           -0.07124599754489       -2.07015716877236       -0.23417953942306
N           -0.18477051282489       -3.37341623592049       -0.62273308297479
C           -1.30917156208478       -1.44679227734051        0.09319495357188
C           -2.36241770944717       -2.36487174402384        0.36634655093220
N           -3.16268804389980       -3.15564220965213        0.59639898986098
C           -1.78006338622180       -0.14127473161357        0.14913157273752
N           -3.09653907769701       -0.02279745806922        0.41723766941617
C           -3.43454424107320        1.25476387482514        0.22790165778743
N           -4.68939357026145        1.68319746839082        0.42604959195222
C           -2.32019748131199        2.03480719489734       -0.16825534977427
C           -1.22151003245266        1.18551555500456       -0.18300635802269
H            2.47183301872875        2.99285846956874       -0.10463578135206
H            5.56233106353038        0.95707869309322        0.82495247371915
H            5.04144297926081        2.57612164513808        0.50432498728753
H            3.83043223656646       -1.02250051960365        0.61643648799431
H           -1.07756178601904       -3.83202865103921       -0.55076272854104
H            0.63825974163405       -3.94701235810967       -0.70015653715904
H           -5.38958107196357        1.00679737534969        0.67373918933352
H           -4.95586501098030        2.61967541590387        0.18373934287152
H           -2.32847398197343        3.08867794236368       -0.36482111558722
