30
 energy: -54.895662032033 gnorm: 0.000579972533 xtb: 6.6.1 (8d0f1dd)
N            5.30703737478292       -0.65707607118359       -0.01220729906295
C            4.25934456679929       -0.17730980639176       -0.00901241806884
C            3.00351815992691        0.41365736000948       -0.00377346567745
C            1.74680510502725       -0.22591223701031       -0.00274881476239
C            1.65086458096247       -1.60544811575145        0.00017104285749
C            0.60917810589308       -2.53646280860997        0.00034090423473
N            1.02455770214495       -3.84463173130433       -0.03189345028754
C           -0.78830462998804       -2.37894289933351       -0.01415647782761
C           -1.67617439247482       -1.32549339661343       -0.02047182984505
C           -3.05989463903087       -1.57655292936116       -0.03743063255922
C           -3.77075391152543       -0.38218921654879       -0.02698133436939
N           -5.10594073653069       -0.21889104122924       -0.01997288465422
C           -2.82954624962629        0.69063892875819       -0.00194054157196
C           -3.20788499095952        2.03233163511143        0.01092840731442
N           -3.61845079963309        3.10688711305111        0.01762118392515
C           -1.52395532903656        0.16842969520605       -0.00185883347959
N           -0.52034585597269        1.00063021626608        0.00764350757328
C            0.77499088345351        0.91458827077532        0.00386003643106
N            1.44314154747535        2.08111276631046        0.00653995470801
C            2.74767531577844        1.81650140566129        0.00124424611623
N            3.66785974596352        2.78843011316490        0.00753393545480
H            2.63088137283795       -2.08019371513347        0.00077322616242
H            0.36234507036179       -4.58280764260642        0.12565971142137
H            1.99547152558329       -4.05792873104984        0.11321112350518
H           -1.30102936335510       -3.33907049701838       -0.02423474997971
H           -3.50311414802434       -2.55617813049888       -0.05614598374534
H           -5.49155678907790        0.70842985555926       -0.06365436678264
H           -5.71854174305337       -1.00973554079228       -0.10435532428163
H            3.35574303076869        3.74294322318719       -0.00481750321588
H            4.64773301602937        2.57019721527622       -0.01917282093268
