23
 energy: -44.019748169567 gnorm: 0.000858486013 xtb: 6.6.1 (8d0f1dd)
N           -3.83293563104381       -1.51639783227124       -0.01308236174452
C           -2.75875081198356       -1.11421764511593       -0.01057910389475
C           -1.38906305690135       -0.71023153561692       -0.00778013777805
C           -0.45818959178418       -1.79102984421797       -0.00279773693481
N           -1.00250806253894       -3.03387612428855        0.00059787723268
C            0.94075698056653       -1.76517419632454       -0.00152903701914
C            1.92335792494507       -0.79662761254454       -0.00213429884794
N            3.20080059467125       -1.22744817122080       -0.00230056820525
C            3.94830398446656       -0.12542321054991       -0.00533579707014
N            3.29981155494098        1.02962795041228       -0.00651760904448
C            1.99336946625567        0.70713308780309       -0.00407149528862
N            1.12292313079709        1.67069832142089       -0.00289052134947
C           -0.18056420574160        1.70036745069756       -0.00448439520312
C           -0.86398954392457        2.92469304113956       -0.00237014299831
C           -2.22428875918466        2.63250950800768       -0.00856570412827
N           -2.46998782982277        1.32438822264643       -0.01294384149866
C           -1.28859779667296        0.67354819968779       -0.00974196377837
H           -2.00056582169700       -3.16078128194416       -0.00163176766175
H           -0.40850022497613       -3.84393012516386        0.00237790853015
H            1.38817474105300       -2.75614822341735       -0.00079700247301
H            5.02230560063318       -0.17372924422282       -0.00654885691724
H           -0.39963157233738        3.88943125209432        0.00140762920391
H           -3.04507362152160        3.32753099508905       -0.01039873553081
