21
 energy: -39.803132128346 gnorm: 0.000862912790 xtb: 6.6.1 (8d0f1dd)
N            4.33507828324400        0.83009479550814       -0.23107894767177
C            3.07062075086562        0.43310487921034       -0.11042077594161
N            2.67657007440879       -0.82525611959539       -0.32211030591072
C            1.35122259736767       -0.82824601353925       -0.09550683221316
C            0.69248987229978       -2.03866115565101       -0.02157508824487
C           -0.64726139289638       -2.33694212673775        0.25763977192950
N           -1.72463189267205       -1.66938081286878        0.01508470807053
C           -2.12778936779666       -0.45715045493038       -0.15814304107120
N           -3.35671473314052       -0.17770703118634       -0.61957819568764
C           -3.54314608173148        1.10781833558288       -0.33295430123553
N           -2.53877372880736        1.75090176157409        0.25624085251535
C           -1.54009116399195        0.85353345449199        0.31551739332756
C           -0.23685550168343        1.24603807392232        0.48711273908968
C            0.96886372857897        0.57998430979527        0.25006696357621
N            2.08542820673355        1.29713502860849        0.24471657253468
H            4.56924160151959        1.78798753093112       -0.04261581760748
H            5.03899363112928        0.16361975306355       -0.49226447646143
H            1.35187541297171       -2.89109720185537       -0.13276475698664
H           -0.84567821283568       -3.34481069424758        0.61548180403241
H           -4.46855650823079        1.60387028863309       -0.56455719064464
H           -0.10699614553251        2.30806617949094        0.66388054380079
