27
 energy: -51.721838992953 gnorm: 0.000292198581 xtb: 6.6.1 (8d0f1dd)
N           -3.25396599385580        3.12201314831357       -0.98471018775766
C           -2.69668236160885        2.16823496163692       -0.66227581514868
C           -2.10342204333713        0.97617184908496       -0.26568757911761
C           -2.81585124766205       -0.16184725248460        0.22815375039539
N           -4.14036905979408       -0.25805394044447        0.36663705103551
N           -1.99525952664820       -1.15728253177826        0.55971581278036
C           -0.73912224205216       -0.77930306433670        0.25388528361329
C            0.22427977752471       -1.77307299925534        0.17049750564809
C           -0.24269027402177       -3.07805091651689        0.44777864338583
N           -0.55854300186333       -4.16259828825099        0.65572093632987
C            1.59210784220713       -1.70704060955733       -0.27482164777867
N            2.08654514087441       -2.81572090906655       -0.88082928643988
N            2.46193752303912       -0.76699155445674       -0.04658540715681
C            2.51165416491706        0.51929137596055        0.10960605481335
C            3.66793536564386        1.19138659278417        0.51624488372668
C            3.45251342818573        2.56561174351668        0.42344207745867
C            2.15156673610698        2.82551738109496        0.00568892144964
C            1.47321690830187        1.60934933595635       -0.16030474735642
N            0.18829487765702        1.56993890136912       -0.31706257165522
C           -0.73329450271006        0.65141350735312       -0.18462889685153
H           -4.73923730697443        0.49895809847528        0.08804013760642
H           -4.52644926663489       -1.10050862479687        0.75503286457224
H            1.55332208940865       -3.66884223128982       -0.88446823239367
H            3.07667733393077       -2.85671134046244       -1.05303748374166
H            4.58491650665165        0.70853899258777        0.79528152669452
H            4.19106331096140        3.31704447551821        0.64115181131494
H            1.70412374005462        3.78902344204634       -0.14188161742540
