29
 energy: -51.157443957751 gnorm: 0.000753041602 xtb: 6.6.1 (8d0f1dd)
N            1.91645742010166       -3.42794278724180        0.87816918023868
C            1.39817660640428       -2.46330079297817        0.52989897073944
C            0.71120522710626       -1.27873537312365        0.14853320155285
C            1.54538625230170       -0.16331562993260        0.11169415058348
C            2.93296805784678       -0.30160805809652        0.30889961976875
C            3.57155843936542        0.89685418102216        0.00321870546239
N            4.89749511193929        1.14365604814360        0.07109440704630
C            2.57752729239721        1.84097654711993       -0.34992550691029
C            1.32124542196215        1.25726750802545       -0.25381402017968
C            0.17909115448994        2.04866271799897       -0.32881975374160
C           -1.15212691377935        1.84403794949282       -0.05365178715451
N           -1.91606018317506        2.95798495229137        0.07027957705167
C           -3.14064370025279        2.56646500609277        0.38621110300945
C           -3.26495060339208        1.17533147494406        0.41467994555680
C           -1.99847952982858        0.65253826031503        0.13976771938208
C           -1.78375033176162       -0.72032192009843       -0.10650714028737
C           -3.01243704738225       -1.41347529590096       -0.26827828469822
N           -4.00234371161917       -1.98171256171603       -0.40328931943419
C           -0.65346747063586       -1.55016849321540       -0.19059981657224
N           -0.88931534092624       -2.84051577554215       -0.58256206650428
H            3.43240965407791       -1.20709593000193        0.59707508742361
H            5.26607302205008        1.99152704530471       -0.32159898762674
H            5.53224499380322        0.38277253325269        0.23661686452979
H            2.76421032913755        2.86736301355900       -0.60617150695423
H            0.38707644834341        3.09599807593602       -0.52372350734037
H           -3.91147570147820        3.29050509730760        0.58202173308332
H           -4.15986319076163        0.62062039130040        0.61963835281416
H           -1.83758629585617       -3.17262606496941       -0.63973181246692
H           -0.16079193537577       -3.52894087500026       -0.49956738527444
