28
 energy: -51.446114587945 gnorm: 0.000697518850 xtb: 6.6.1 (8d0f1dd)
N            3.64424113525816        2.84009505158359        0.00714944151195
C            2.98029729380567        1.89970364204425        0.00539804217706
C            2.18721212341237        0.75367981348738        0.00207089868322
C            0.77173492936315        0.72709194421445        0.00295749828502
C            0.07416988090123        1.92197309199471        0.00628169412260
C           -1.26982761299345        2.31270482455036        0.00846549014827
N           -1.46932907795429        3.66207207982009        0.02386937857729
C           -2.45899272421139        1.55607234930923        0.00987737996757
C           -2.76959801997440        0.22124110469595        0.00649860776924
N           -4.09331256588964       -0.08023145275172        0.00808821892298
C           -4.20613759803746       -1.40211661603678        0.00198015258088
C           -2.97319666164855       -2.05557053494695       -0.00405491591983
C           -1.99170605203368       -1.05804274451943       -0.00124764498361
N           -0.72083727425026       -1.37762107473268       -0.00450385968910
C            0.39353401575633       -0.71359073828031       -0.00250103915474
C            1.61175475875063       -1.45185299378253       -0.00621479747332
C            1.73363900299420       -2.84168601551769       -0.01244414314977
N            1.90196600655105       -3.97903893536538       -0.01802672927600
C            2.70490355008460       -0.56641498947428       -0.00314750794280
N            4.00270217427348       -0.90389077493388       -0.00494681376943
H            0.74686589390418        2.77849795628830        0.00807355612519
H           -2.39809944514593        4.03944922206496       -0.02296544787330
H           -0.69215351365476        4.29624192675966       -0.02417013634203
H           -3.36041414627404        2.16286201537356        0.01444868182362
H           -5.18158482464228       -1.85672870711219        0.00216081710907
H           -2.78882500367130       -3.11068419136011       -0.00974626837834
H            4.26860768745486       -1.87331104887171       -0.00852236697585
H            4.71404597507145       -0.19382076370108       -0.00213100107583
