31
 energy: -54.615455911729 gnorm: 0.000935271723 xtb: 6.6.1 (8d0f1dd)
N           -3.04006868588069       -3.23486089135927        0.53713827548030
C           -2.33687772687774       -2.35433253423902        0.30535410716385
C           -1.43916738380951       -1.30559548818430        0.01160933490671
C           -1.97255334783218       -0.01947149508867        0.10529397380699
C           -3.31376016016478        0.18336164966176        0.45020019396887
C           -3.66547639225902        1.51136742875128        0.19263265689800
N           -4.87674332346041        2.07339228541292        0.41759087728158
C           -2.52541576119190        2.18092600362182       -0.29163573150859
C           -1.43868021489822        1.30621654490268       -0.31540198297602
C           -0.16253780425135        1.79145311597737       -0.57396686580730
C            1.11407140707074        1.28939799350622       -0.38836163513042
C            2.24695130838835        2.11441809428297       -0.35992993102828
C            3.34582181185930        1.39094665182679        0.11446857684368
N            4.58476693297383        1.86905374893535        0.35868056952027
C            2.93760147947959        0.05002443983957        0.33928676003219
C            3.77885279092244       -0.97115738188261        0.76797238033588
N            4.51564394096303       -1.78309040714128        1.12031677369775
C            1.57623317592256       -0.06991755164957       -0.02123201173912
N            1.02691625635780       -1.24003956772772       -0.16998449133891
C           -0.14015737092275       -1.77360641184640       -0.38054519444882
N           -0.08165003050455       -3.01750108928809       -0.93912711682240
H           -3.98280700034856       -0.57803368369584        0.80509460173462
H           -5.65378440135594        1.47519463357407        0.63670610101940
H           -5.07681501056072        2.97729086396943        0.02766759413810
H           -2.48508228876178        3.22342089465562       -0.54921180519775
H           -0.16554905209929        2.84873734257502       -0.82743125951134
H            2.25860059844787        3.15922604201480       -0.61142165268465
H            5.31287219321516        1.22614970330189        0.61746300397014
H            4.84091018377094        2.78374493781852        0.03342193395246
H           -0.88309028651702       -3.62414282293866       -0.88906379131082
H            0.83107706762487       -3.43901058958442       -0.99785559514703
