30
 energy: -49.294263881315 gnorm: 0.000699982530 xtb: 6.6.1 (8d0f1dd)
N           -2.76796403443001        2.52098544832505       -0.57786141392199
C           -2.56505543148285        1.14260463248693       -0.40737721840475
C           -3.55491436593569        0.18355205743966       -0.57637150834451
C           -3.00869602545223       -1.06015394034715       -0.28314969355826
C           -1.64679586345617       -0.91013161798536       -0.00276687755641
C           -0.81870496980681       -2.01608844742107        0.33677441410106
N           -1.37667423729529       -2.99847131754543        1.08825928340996
N            0.36830146677680       -2.29125251087759       -0.14044407084114
C            1.38874144772273       -1.59165673436402       -0.54430832169965
C            1.82250961210243       -0.33049263110561       -0.17256287106079
C            3.20282378197702        0.03621400489500       -0.19157650975924
N            4.25026657370194       -0.68108097454233       -0.68417474651866
N            3.41076256185578        1.23615248440223        0.35664811968594
C            2.20621657855998        1.70176754733861        0.70447949543852
C            1.15359087112616        0.81959566019494        0.42103069907657
C           -0.21124831803181        1.20947737613154        0.42710867069764
N           -0.47133520579780        2.46131287354246        0.87024195202163
C           -1.34171720339700        0.50163219700318       -0.05116515544352
H           -2.01056718496888        2.97745953106870       -1.07213533056189
H           -3.65314679166272        2.70474616291788       -1.03384558088479
H           -4.56877199702621        0.37842326647225       -0.87728907935699
H           -3.53233039545734       -1.99795505879097       -0.35244522450168
H           -0.90024738563418       -3.88134024124690        1.15738226272059
H           -2.35742538096407       -2.95071903885186        1.29932846829747
H            2.07270484094504       -2.17838250119507       -1.15721214810467
H            4.13978380289671       -1.67299039832532       -0.80236881212855
H            5.15682800552410       -0.36275834520015       -0.38291563443349
H            2.16533686053748        2.68601684435824        1.13944217365900
H            0.26374931027925        3.03583329690313        1.23595268213566
H           -1.42929679520638        2.75316106071913        0.97009855353778
