31
 energy: -49.011069733510 gnorm: 0.000666485571 xtb: 6.6.1 (8d0f1dd)
N           -4.50400189916764        0.82887627846747        0.42998027528640
C           -3.51033527365445       -0.05709494979828        0.09557958381236
C           -3.72020981515313       -1.38944538729054       -0.27074891422295
C           -2.48501289087960       -1.97764758889305       -0.47809222310905
C           -1.45432943015889       -1.03490560028156       -0.28167708156026
C           -0.12339232710068       -1.44998683997744       -0.24059624341944
C            1.09273757249752       -0.83504175645900       -0.02542721411654
C            2.30087145382650       -1.60616778573011        0.07519321660610
N            2.38141783074060       -2.97843719547033        0.06403370365474
C            3.38826610464325       -0.75291866830363        0.13580531160758
C            2.92428445571000        0.56605943766400        0.03832489793643
N            3.74845741143383        1.67247351718164        0.03332552016302
C            1.51471509304038        0.56218655033392       -0.03997726874178
C            0.73890557070938        1.71594660540688       -0.26110293934382
N            1.37045193623993        2.80169962241386       -0.83567576756887
N           -0.45777380491526        2.02039301159407        0.18365454429438
C           -1.57892012122471        1.43374165923550        0.46702057496057
C           -2.11053700057259        0.20881983927944        0.08280593216068
H           -5.43196312807708        0.58412702375319        0.12416537376319
H           -4.28701226661367        1.81009404673715        0.37630971173717
H           -4.67972227194030       -1.86702153068479       -0.35908161183168
H           -2.32342912123212       -3.00969088589960       -0.73773982561269
H           -0.03928293283377       -2.52287716008210       -0.39559067334146
H            1.57289740195149       -3.48183468400752        0.39271233343095
H            3.25955811979669       -3.35765862069259        0.38104251590387
H            4.41886618564840       -1.04468437159131        0.23245431083413
H            3.31799113354278        2.52598518027595        0.35917445996868
H            4.66440059425797        1.50465312117343        0.42339180395750
H            2.11639306512383        2.60413218406428       -1.48215323261710
H            0.75640514459342        3.56371574292768       -1.07890151554817
H           -2.25141312773167        2.09407313935426        1.01817350475545
