23
 energy: -43.241972383709 gnorm: 0.000687932908 xtb: 6.6.1 (8d0f1dd)
N           -4.57330747109610       -1.27806988872564        0.02126494713327
C           -3.37770364903844       -0.68236074614614        0.01514767712224
C           -3.12241360178577        0.71150598016031        0.00819250275992
C           -1.75023021714994        0.87311788090300        0.00421566907708
N           -1.23748733134370        2.09306293330693       -0.00238974389383
C           -0.02726291407935        2.57174200482189       -0.00795905590075
C            1.27052203989365        2.04803445027979       -0.01042787247018
C            1.78164057441880        0.76511996035059       -0.00674259388290
N            3.11523336109223        0.60510487983918       -0.01077017109138
C            3.31259583133145       -0.71984431703313       -0.00501702640236
N            4.52835060966616       -1.26489604455458       -0.00562841762532
N            2.19665749650546       -1.48182109286653        0.00261546971285
C            1.18432472871148       -0.62442920532241        0.00193084753930
N           -0.03450199002362       -1.10784591107466        0.00802967255701
C           -1.21251103218794       -0.56981771711517        0.00917353088300
N           -2.25395392663914       -1.41057899392522        0.01558708058504
H           -4.60475658787297       -2.28282810040357        0.02499481792750
H           -5.42230741412119       -0.74263493196982        0.01943123614581
H           -3.85451741312224        1.49451450246717        0.00651059052815
H           -0.04896716354805        3.66260096220641       -0.01191165144164
H            2.05297017319323        2.79833702666964       -0.01621678134032
H            4.61269805218107       -2.26508453873435       -0.00512648400492
H            5.33669758541524       -0.67011040393362       -0.01554883881749
