27
 energy: -46.934946101402 gnorm: 0.000618140728 xtb: 6.6.1 (8d0f1dd)
N            3.43601061865337       -2.51943948797988        0.91217529664694
C            2.87283078861800       -1.55813392386229        0.61668121874436
C            2.23111068639945       -0.38280844520945        0.24725348287528
C            2.88812209560583        0.73743222647799       -0.34097641637997
N            4.21822419965113        0.81365712893602       -0.55306375913548
C            1.93499807593563        1.71811428535620       -0.60636222253134
C            0.68012515685565        1.27605679516798       -0.16786814476537
N           -0.31941785459671        2.10924541481878       -0.01235882904437
C           -1.58642731091386        1.95647906818596        0.28723973559660
N           -2.15797076353015        2.98394656752928        0.97211231588858
N           -2.44174203906551        1.05234876686952       -0.17331554835797
C           -2.38655767432312       -0.23225414093008       -0.31302846288226
C           -3.47894387223067       -0.96807882560869       -0.84159982722458
C           -3.30927685726473       -2.29373215977237       -0.51212789437277
C           -2.08428420169986       -2.46584862309229        0.15940809832622
C           -1.42914530175043       -1.24144564979301        0.24891392999016
C           -0.07631468313449       -1.13169439393781        0.54750732782414
C            0.84001769790592       -0.12538641702671        0.29879122692698
H            4.79486659325506        0.01048877433148       -0.37353384436786
H            4.59947020729521        1.57644824991031       -1.08231760705233
H            2.12899695180140        2.69064373781620       -1.01526209989335
H           -1.61496174703573        3.82135670265942        1.09231721232140
H           -3.16045558695661        3.05559433784724        0.96166595962250
H           -4.32542929327631       -0.52213207087298       -1.32641987061846
H           -4.00025091062318       -3.08742484509526       -0.73574174037090
H           -1.68490551022724       -3.40587722692311        0.49372531360107
H            0.37836210535215       -2.06926796750121        0.85830268653473
