27
 energy: -51.715192210003 gnorm: 0.000930930866 xtb: 6.6.1 (8d0f1dd)
N            4.12293000571346        0.43316746562289        1.42978313677889
C            3.17233088289088        0.02740235778486        0.92388312449239
C            2.08995681617131       -0.61276888548501        0.32219795973229
C            2.18752423178531       -1.93347147177680       -0.17738502271933
N            3.30205356579540       -2.67662112628985       -0.17596490025906
C            0.92164932743264       -2.32612376127040       -0.65630447000115
C           -0.00350902723829       -1.31154589455508       -0.43964820714986
N           -1.28464322393294       -1.58120783889606       -0.52539759151176
C           -2.37720202208030       -0.96890407429882       -0.21546512269897
N           -3.49989538343246       -1.67838948129515       -0.01909281138741
C           -4.38803290037371       -0.86184806324810        0.53925486226716
C           -3.93001871718056        0.44741237528139        0.71350576925515
C           -2.65312890957568        0.48408263865436        0.16306176294764
N           -1.95198837721357        1.55232970715645       -0.08256811091592
C           -0.74654904434135        1.87276916891823       -0.41146712499947
N           -0.59634391166374        3.02102900997182       -1.11662276011258
C            0.48210212696212        1.21938899971378        0.02693460914951
C            1.49341520095387        2.15346825163041        0.34261402459998
N            2.24417589191204        2.99496646144067        0.56301320766057
C            0.78093555282869       -0.12412983678216        0.06663964354848
H            4.13879286489698       -2.32220765561618        0.25615046240879
H            3.29423867090593       -3.61042440672484       -0.54532883996330
H            0.67100670114677       -3.29376895618018       -1.04521180559612
H           -5.36295800713025       -1.23648358404085        0.80004340115815
H           -4.47750893354280        1.27546841898398        1.11736769674624
H           -1.41810916620959        3.57584908888969       -1.29026750441829
H            0.30360805481519        3.46850017991072       -1.16806675190873
