29
 energy: -55.963580308338 gnorm: 0.000900331928 xtb: 6.6.1 (8d0f1dd)
N            0.30425759420102       -4.46247078228041       -0.25202626685540
C            0.45928968045866       -3.32814178154943       -0.16818839813351
C            0.75205939167590       -1.93552897919229       -0.08577347937499
C            2.13093215547623       -1.63027190757921       -0.08902541426739
N            2.97325319534429       -2.68137608512403       -0.26590256411889
C            2.78576138731727       -0.40304551230719        0.12525283634193
C            2.45125736790475        0.92527158219216        0.20183267568102
N            3.50178449897025        1.76240078703153        0.39676367167341
C            3.04951241368920        3.00342264330409        0.31105916249625
C            1.67929818335855        3.05767594543268        0.04479221100248
C            1.22414000771082        1.73463652225901        0.00009517116866
C           -0.12605769340101        1.40577185937777       -0.16168638380989
C           -0.92738588306028        2.53596422666161       -0.49048595340925
N           -1.52132117187436        3.45664438877178       -0.82906565671430
C           -0.83986028543412        0.21075610512916       -0.02151715938684
C           -2.24829725076669        0.17093544359138        0.05427497147860
C           -3.21429194623154        1.17268584497626        0.11952219486293
N           -4.11854376542841        1.87735527005634        0.21625855382129
C           -2.61022395363579       -1.20495030640017        0.16947359334037
N           -3.84441595890179       -1.69264313916248        0.29959777078814
N           -1.53029319709417       -1.98784248175196        0.13127924136600
C           -0.44060151698346       -1.20942757649256        0.03116642733976
H            3.96688536276743       -2.54395557992860       -0.21653718618816
H            2.61558824203860       -3.61623459826578       -0.36823162279009
H            3.86088113415722       -0.51450165890614        0.23743784446448
H            3.71757329666596        3.83605199517902        0.44009530570844
H            1.08524847196248        3.94339357641245       -0.06378503434797
H           -3.96863966832686       -2.68679240069611        0.37752692000707
H           -4.63615803165795       -1.07348512684054        0.32210281185746
