22
 energy: -35.521478905638 gnorm: 0.000750264708 xtb: 6.6.1 (8d0f1dd)
C            3.58225731929107       -0.88157534773515        0.16605150981670
C            3.23518256661433        0.44974658219650       -0.06624457012688
C            1.84013250193567        0.57118180147937       -0.06432429071530
C            1.17093359737551        1.76107849069191       -0.37390392560216
N            0.01789121231028        2.17386948556206        0.02745802174635
C           -1.14571990571491        1.77155571915309        0.39788973151811
C           -1.80227872604567        0.58663595644386        0.04493976470951
C           -3.19033035904753        0.40624610904366        0.00120622037773
N           -3.53336405082323       -0.86726561795541       -0.22379050772568
C           -2.40338037756416       -1.55908570255741       -0.28409787879900
C           -1.24913996543284       -0.74797142279334       -0.15419767103567
C            0.01934976383194       -1.29589347361748       -0.00541573020666
C            1.29489709805901       -0.77059354453365        0.13644892283877
C            2.42027098477118       -1.62446175518208        0.25769536913375
H            4.58418453111294       -1.26433662779809        0.23155928709299
H            3.92115388572772        1.26737672562514       -0.19541294210939
H            1.73443744070435        2.51134065190086       -0.92618661933824
H           -1.71001544824399        2.50383161356882        0.97287488784194
H           -3.94276505999244        1.16882377085035        0.09093652866234
H           -2.41967435690413       -2.62610794334958       -0.41694926176523
H            0.00520746224060       -2.38321004138925       -0.00032106657420
H            2.36002538839435       -2.69057350570442        0.38173674506031
