29
 energy: -45.563459748202 gnorm: 0.000826033769 xtb: 6.6.1 (8d0f1dd)
N           -2.74997388557286        2.54909583794879       -0.04140918048826
C           -1.63491857827363        1.76010454959644       -0.01850245564789
C           -0.45267225161589        2.54056013864744       -0.05441996102824
C            0.89896171025673        2.32223689890030       -0.02651509542725
C            1.72666823716248        1.20105780035744        0.00298676002547
C            3.12140678941641        1.32824816094587        0.02811480806316
N            3.76542742285677        0.15579077491763        0.04478993089764
C            2.81602128787735       -0.78548001118090        0.02444645635570
N            3.16669985241366       -2.10333621060631       -0.01027546378029
C            1.49352863764903       -0.23114134408063       -0.01298789173317
C            0.36814751888978       -1.02067929184115       -0.07491683714058
C           -1.00292689553837       -0.80235289841992       -0.05776431269228
C           -1.86444471399850       -1.94307314310470       -0.04441436497015
N           -1.49042494639099       -3.26409043824341       -0.12880128323743
C           -3.17864150933811       -1.52074784752214        0.14983379862275
C           -3.17979289370270       -0.14122244353569        0.20360439624667
C           -1.86924997959305        0.36993023953188        0.05586836798148
H           -3.66066354641801        2.15165430230668       -0.16195879507264
H           -2.65185986030818        3.54185301933232       -0.15271827184328
H           -0.69173435199462        3.60060066284212       -0.10133468136072
H            1.47803109626008        3.24224502409860       -0.03995063336601
H            3.68181189300534        2.24678077627264        0.04407440622294
H            4.14011957855488       -2.26879166628856        0.19152351909742
H            2.52269764159897       -2.77260113021471        0.37842867316091
H            0.61468372525576       -2.07854761104085       -0.10918878857392
H           -2.25273929045471       -3.90353924969744       -0.29007713720707
H           -0.66379603151191       -3.47580917957299       -0.66507345016835
H           -4.03798233918945       -2.16116903611560        0.23504563947618
H           -4.08081966549597        0.42294201516703        0.36897106018721
