22
 energy: -39.522628013433 gnorm: 0.000576966598 xtb: 6.6.1 (8d0f1dd)
N           -0.02043324192069        3.14200412190550       -0.73153621633968
C            0.01577569534807        1.94846620935328       -0.09719985830351
N           -1.16766319591690        1.47416454613696        0.29874420327736
C           -1.69211113496986        0.30159407065596        0.30295018618428
C           -3.02196688967732        0.08387789357858        0.76756249297930
C           -3.45565293089977       -1.12249817916582        0.28101711561742
C           -2.40857781166154       -1.76701511294074       -0.41751416704651
C           -1.26904692776845       -0.97897070555421       -0.37716547958721
C            0.00598203684444       -1.46326933661815       -0.64740466137735
C            1.24555625696626       -0.98065137628718       -0.27552003183576
N            2.30732475337141       -1.81390012694449       -0.21708938875351
C            3.23211367435596       -1.14131606781488        0.45877853880425
N            2.92627378279652        0.10043753370215        0.83480122971094
C            1.69564752180223        0.30505381559036        0.34762668355248
N            1.19165301805850        1.50431796903192        0.25778574006546
H           -0.89193006415453        3.64100496560161       -0.77312150091453
H            0.84228023587670        3.65081761387369       -0.82145804508406
H           -3.59196422826651        0.81241699950819        1.31004700421654
H           -4.44037753470009       -1.53417256579958        0.41438831866107
H           -2.46994994480101       -2.74673516856370       -0.85427753322105
H            0.03979811254050       -2.47860296359532       -1.02892530554051
H            4.18813135877641       -1.57589009635422        0.68924291493492
