27
 energy: -46.921693367047 gnorm: 0.000599880132 xtb: 6.6.1 (8d0f1dd)
N           -2.49241325864624       -3.10748093624058       -0.71494523605094
C           -1.74531796261156       -2.27537902080436       -0.44581826719924
C           -0.78625553918258       -1.29701405131568       -0.10299539283589
C           -1.22427471267643        0.01776326165307       -0.13826295950695
C           -2.56538357913885        0.33024964847734       -0.43727228687222
C           -2.80724136525457        1.66239365891068       -0.12845117577003
N           -3.97326531881296        2.32974406502259       -0.27202775048333
C           -1.59142001877385        2.23642171333574        0.32919012394048
C           -0.58118664883476        1.28949074427302        0.29747397073981
C            0.74754174994574        1.66995431970506        0.50915525458395
C            1.95208183404509        1.06327993490577        0.25250091908265
N            3.06293564988565        1.83490339284662        0.19578077193771
C            4.02294506572226        1.09266009770043       -0.34809607822795
C            3.62802097282464       -0.21813096338152       -0.61376568539226
C            2.30258548651992       -0.31684797286552       -0.18128995094549
N            1.68066893659389       -1.45675923167285       -0.00048611881525
C            0.48802474629451       -1.87781563657246        0.26546719622263
N            0.43403369586546       -3.10983530319647        0.84915878420811
H           -3.29627395590947       -0.37306084843856       -0.78968560039546
H           -4.07380659907471        3.24419642247648        0.13066294250938
H           -4.80791530911008        1.82048316714998       -0.50259011107286
H           -1.46688431737532        3.26644351462150        0.60843969636063
H            0.86244528281398        2.71811571657439        0.76703066203959
H            4.99373169699196        1.52210228149414       -0.52720189199743
H            4.22691347691281       -1.00925277800543       -1.01854423241149
H            1.30143400056777       -3.61512611599200        0.92254073691636
H           -0.42336911998019       -3.63589425456219        0.83660614613638
