23
 energy: -39.223699388864 gnorm: 0.000814091998 xtb: 6.6.1 (8d0f1dd)
N            4.48161897838825        0.85688107256003        0.34420414376233
C            3.20536383500966        0.46088256136921        0.12881905371395
C            2.75932523619148       -0.86728634092729        0.04903229320691
C            1.37295258600541       -0.89184716239002       -0.10569887948952
C            0.64527664848820       -2.07111803584543       -0.16088493347219
C           -0.72512526872005       -2.31059981937843       -0.19926372848688
N           -1.74631996690875       -1.60249862346293        0.20099315403466
C           -2.10712818398432       -0.38443707287489        0.34428542070857
N           -3.29774299485903       -0.01910706362168        0.83479857032729
C           -3.56300426358081        1.19524939646464        0.33934476184480
C           -2.53148412372553        1.75270911545037       -0.40409653245950
C           -1.45522748843862        0.85433287953610       -0.29955512643129
N           -0.20605810825168        1.14367095683747       -0.37650278418157
C            0.94128383763487        0.54370020731713       -0.16849806809702
C            2.09297913465388        1.31015900929537        0.00516737612876
H            5.22598870862823        0.18910048025416        0.24696394859563
H            4.71229308707511        1.83106279143372        0.25950286046900
H            3.38891215990421       -1.73645505276582        0.11029006397949
H            1.25656860775600       -2.96662243400892       -0.20209941726162
H           -1.02161563525466       -3.31384480770127       -0.50070526174220
H           -4.51273573321348        1.65200627997918        0.55911320875203
H           -2.52248845053011        2.70300494925287       -0.89888603928691
H            2.11169178703160        2.38293676712674        0.02431296778538
