25
 energy: -47.484105713822 gnorm: 0.000881878015 xtb: 6.6.1 (8d0f1dd)
N           -4.31562178466896        1.62226668608263        0.52734073667202
C           -3.44817489192583        0.88168328660849        0.36959643733629
C           -2.41081949460643       -0.01973730001238        0.16689740486499
C           -1.03094829293395        0.24132035694639        0.14392578844458
C           -0.53809614864111        1.53422219163555        0.11991993893667
C            0.71053072023931        2.13178339616751       -0.08701916324326
N            0.68772383482685        3.49292848070707       -0.12050768489911
C            1.99710146759495        1.57888196602844       -0.27327933558237
C            2.52600248465176        0.31831484638743       -0.21125262951345
N            3.87473076329795        0.18431786821431       -0.22010992664562
C            4.09887963638564       -1.05016603160490        0.19665261591592
N            3.02868318873679       -1.80851153145338        0.44946210205573
C            1.97812804625031       -1.04257127724385        0.14234826331922
N            0.78730461136758       -1.55194576989079        0.08082268543343
C           -0.42186344855658       -1.12541876476457       -0.04786409015233
N           -1.39347597260613       -2.02729775283283       -0.26237799063715
C           -2.56582502273054       -1.41485137596956       -0.12121409025364
N           -3.72405485655566       -2.06275472042613       -0.25556506750815
H           -1.33736432670670        2.26962242818885        0.19991322525752
H            1.53173331844401        4.01541933526341       -0.26945275175789
H           -0.16955307596574        3.99571266705335        0.02407080543696
H            2.77486540312142        2.32655725514976       -0.40190368257183
H            5.09595032426606       -1.43208783741672        0.32399211950325
H           -3.70112396388255       -3.04924769810332       -0.44712276142710
H           -4.59779530069377       -1.59521537520759       -0.08901188118800
