34
 energy: -56.185058737448 gnorm: 0.000598782876 xtb: 6.6.1 (8d0f1dd)
N           -4.40451413180705       -0.71130303884752        0.14530009793371
C           -3.35085529804913        0.15031047806006       -0.14708967365254
C           -3.49598783842267        1.39968789475891       -0.76243504858087
C           -2.25188110793115        1.98785430256497       -0.84218295321257
C           -1.26666619405452        1.11119574867971       -0.32459854832761
C            0.06441018259248        1.52920553127921       -0.07763816077813
N            0.25417921276638        2.88269025369755       -0.03953162211863
C            1.22547302816773        0.75576583939819        0.13989132567302
C            2.50988501698946        1.30515430087025        0.38788314057433
N            2.83749019826836        2.61371534416245        0.72823247028472
N            3.49985132874856        0.41750846924588        0.23963455303591
C            2.92266315720931       -0.73411538185975       -0.12930813989275
N            3.70295631293882       -1.84461963773960       -0.37800426299038
C            1.51654263556913       -0.63444768467724       -0.17884449040993
C            0.66378745488188       -1.73340797953546       -0.38172416626712
N            1.15708012023141       -2.81002465747476       -1.07735845800100
N           -0.46493385121041       -1.97208203189159        0.23963003890286
C           -1.48729857947582       -1.28141195753684        0.65452999675332
N           -2.29297441212882       -1.94069114631948        1.54258503522832
C           -1.98151606441460       -0.07269748809871        0.09687627966310
H           -5.22123094107818       -0.53334828182645       -0.42320198424509
H           -4.14827670602747       -1.68954892377024        0.15079084237003
H           -4.42442590316769        1.81910355497177       -1.10718064914531
H           -2.07906124587706        2.94883518606636       -1.29722250451771
H            1.17760267494803        3.23049797307728       -0.25118422107581
H           -0.52695438800088        3.45972280286447       -0.29892367186048
H            2.28367676511557        2.98585983252313        1.48962641141601
H            3.83007054245375        2.67557810364474        0.92017132664837
H            4.64083583897812       -1.72382345797630       -0.02118941855606
H            3.27991346743830       -2.72289339334759       -0.11061964477206
H            1.85876101088615       -2.61954604942835       -1.77283540085383
H            0.48811174398555       -3.53316492076651       -1.28872610741465
H           -2.97081000681235       -1.39607837466971        2.04788787847879
H           -1.89738200561134       -2.74472812459843        2.00135594040952
