31
 energy: -53.829773833660 gnorm: 0.000279262637 xtb: 6.6.1 (8d0f1dd)
N            5.70207450145460        0.44984816815579        0.11812801519536
C            4.55911004208690        0.30810830123423        0.09025050422353
C            3.17930289330903        0.13669332767465        0.05404458947696
C            2.50289350684491       -1.07996406113490       -0.18793905765943
N            3.13603611050903       -2.26543348065177       -0.34463289421267
C            1.10291652750892       -0.85465763231204       -0.11321734638162
C            0.19406068258780       -1.88120034946651       -0.33527128684998
N           -1.04203227290966       -2.06775784310532        0.02231506964777
C           -2.08425661921864       -1.35443132427307        0.36411267392715
N           -3.04525077071604       -2.07510966812023        1.01868995795390
C           -2.41377171536381       -0.03093381561175       -0.01142801104936
C           -3.72384779663996        0.46678889423851       -0.16646595935163
N           -4.90390843700006       -0.23132137074706       -0.11814863785536
N           -3.74573565248257        1.80294434306356       -0.37296761028808
C           -2.48419581819034        2.19807038674351       -0.32550158730159
C           -1.56841335833361        1.13565476057795       -0.13141581789572
C           -0.20817944901465        1.38198986750731        0.02737335225905
C            0.90967764987305        0.57647507107573        0.12722294206908
C            2.21472381696725        1.14624390135042        0.24051796283675
N            2.52172937667720        2.44704937265831        0.43741518986945
H            2.62367430744093       -3.06068555943054       -0.68393222485560
H            4.12990569144327       -2.25038432319856       -0.50136124503065
H            0.60964592055554       -2.78337114952737       -0.78913430025054
H           -2.76158702445386       -2.96995654525503        1.38327739365872
H           -3.76226263030888       -1.57100588371880        1.51252111677454
H           -4.85861136383633       -1.19380656505686       -0.41920910859237
H           -5.67950037342872        0.29284019785665       -0.49649994151529
H           -2.23601261101187        3.23888650195637       -0.43926454106490
H            0.00916928181364        2.44687445238109        0.03868317871382
H            1.81501786055359        3.09385988117094        0.73801392784047
H            3.48474341248298        2.69508207756704        0.58493561170779
