18
 energy: -36.614532434821 gnorm: 0.000948772735 xtb: 6.6.1 (8d0f1dd)
C           -3.27373408160458        0.91774604756975       -0.24270196102351
C           -3.12410631320567       -0.45014917927923       -0.24997441506318
C           -1.78981211530110       -0.71101349014438        0.12572621772939
N           -1.22263190943542       -1.87376024622296        0.11482775536063
C            0.02584318653056       -2.22782414539079        0.25741248701480
N            1.10318779610384       -1.65889341635367       -0.21679668978776
C            1.65281967084333       -0.53371585936760       -0.36624864549830
N            2.80706512945891       -0.18424056122610       -0.90500922605900
C            3.19146283027398        0.90153093662921       -0.22012262037024
N            2.34268919433220        1.43719261892495        0.64788672261835
C            1.21801103079500        0.73786007236340        0.50514654318774
N            0.01359253495649        1.07671491706894        0.62216232257413
C           -1.19852893027834        0.69120665883221        0.33855166836813
N           -2.13119445730433        1.57765644822024        0.04894700936120
H           -4.16293094846132        1.48598020281160       -0.44763256647135
H           -3.86845442767958       -1.19561794500508       -0.44428047455787
H            0.18576283074578       -3.22407104026079        0.66055205321365
H            4.16537419373038        1.32994181803025       -0.37651691219692
