31
 energy: -53.034684519982 gnorm: 0.000877614175 xtb: 6.6.1 (8d0f1dd)
N           -3.05091241504606        2.63309843257974        0.54341297721853
C           -2.84365547280140        1.29504732412183        0.33862458457761
N           -3.87484687800311        0.44867290564869        0.29787273764852
C           -3.35337905418027       -0.75153519441540       -0.00144358738318
C           -1.96454432770918       -0.73243332230845       -0.11577347502440
C           -1.17200100398724       -1.85488465814748       -0.49005629991536
N           -1.75721635275034       -2.76683022000137       -1.30598646042943
N            0.00841202804976       -2.18785347903346       -0.04990727496350
C            1.08706334508447       -1.60154552515634        0.40644527821161
N            1.90258839849266       -2.44515211003087        1.12172503872863
C            1.59877221308222       -0.32956654982277        0.07994725308317
C            2.96841903936374       -0.00161878925154        0.04578260984719
N            4.03952169679639       -0.83394306859674        0.25078672350110
N            3.19016193873565        1.29882892604486       -0.23682058132038
C            1.98931023341903        1.86327680812796       -0.34898548212526
N            1.87650097560200        3.20438459172664       -0.56334746466211
C            0.91479579147730        0.93071068123756       -0.17194034530258
C           -0.39728710086373        1.34121064245360       -0.04719273178669
C           -1.59021909813321        0.64585435551629        0.10340352835897
H           -2.31344503464941        3.14564027052749        0.99877412212002
H           -3.98109644550708        2.84810009236885        0.86677177898884
H           -4.00568886499607       -1.60724661283923       -0.05568142585207
H           -1.29390642385775       -3.64449150029114       -1.46368134254484
H           -2.72998732721925       -2.66969073197113       -1.53371146261912
H            2.57572646469369       -2.01902038310741        1.73765406124520
H            1.46511277380237       -3.29374690575023        1.44431747318707
H            3.89929917531011       -1.79787464827336       -0.01419326980287
H            4.90821735977255       -0.42977748790644       -0.06706705994641
H            1.04892092941543        3.53442801215462       -1.03117166925900
H            2.73823986277070        3.65610155664999       -0.82348450867953
H           -0.52299427436407        2.42060845944608       -0.05956916529950
