26
 energy: -42.409391346308 gnorm: 0.000529017148 xtb: 6.6.1 (8d0f1dd)
N           -4.28169077819484        0.57188158379284       -0.17628728385061
C           -3.17401347344362       -0.20177959031191       -0.01378792030808
C           -3.18841904576808       -1.59098702931035        0.19095586535909
C           -1.88354165749848       -2.02427570077077        0.27651459648181
C           -0.98966615613594       -0.93042106610957        0.16311206426158
C            0.37372291091390       -1.15665389956564        0.04262659279713
C            1.48146113860013       -0.33553152087746       -0.09730935408681
C            2.81505407054878       -0.84414678989107       -0.17877685127813
N            3.20409538468055       -2.12308040854614       -0.38281503862191
N            3.74632607311018        0.12451930451868       -0.07852619097712
C            3.08058219734122        1.25959802264367        0.10051425204216
C            1.68345625474854        1.09521673738498        0.07897307035701
C            0.78764815888572        2.13407952686063        0.31842478525731
N           -0.45074602501754        2.28512823668107       -0.03482441235037
C           -1.47735879566474        1.55687091678298       -0.35684124048759
C           -1.82437700629391        0.24916548783900       -0.02868531411014
H           -5.17002432872288        0.17323525893136        0.07482104902340
H           -4.19660137242444        1.56904535803000       -0.08507691398275
H           -4.07230416544897       -2.19935462492638        0.25269993801661
H           -1.57358604736006       -3.04779834464558        0.39420528761672
H            0.61645722307443       -2.21664951403318        0.07204658273830
H            4.18102500518776       -2.31671622969806       -0.24298687041274
H            2.55033692007138       -2.87223826470728       -0.23663097435904
H            3.61207283839388        2.18828456094333        0.21057609402538
H            1.20812347051716        3.02830563042200        0.77839865374405
H           -2.23840406790129        2.13733453386258       -0.88071602189489
