35
 energy: -67.894734224595 gnorm: 0.000977432023 xtb: 6.6.1 (8d0f1dd)
N            3.80398141364169        3.70615303753080       -0.81812018866693
C            3.38892424108839        2.65215453419835       -0.61610230565216
C            2.90029406124647        1.37145561454091       -0.36798302863919
C            1.54712944578525        1.04398408094283       -0.05281853040370
C            0.66020427443248        2.06885579104963        0.18416993160623
C           -0.69008961328081        2.20287704390925        0.55581353968912
N           -1.00100704937089        3.42816943167845        1.05904739495024
C           -1.76976180553768        1.30607973212297        0.36858340583886
C           -3.03121208082473        1.89157908158165        0.65881742245850
N           -4.00600830901648        2.39822114943161        0.99424692194591
C           -1.86623933652451       -0.02982806915428       -0.05076308553643
C           -3.10275220827199       -0.56875286076069       -0.45759650299385
C           -4.26579094677794        0.08609489556769       -0.86647609514177
N           -5.25056150057805        0.50181521014663       -1.29110059137068
C           -2.99958845592353       -1.98885232654834       -0.51515744250650
N           -3.98373231986774       -2.81708633126402       -0.88792634008229
C           -1.70213246339101       -2.33533416639466       -0.12475737758382
C           -0.94682883859720       -1.17864692628211        0.09119508414564
C            0.43063258284076       -1.28282969717871        0.35473136727472
C            0.79904268127774       -2.58281745334876        0.79800690973497
N            1.02794746259185       -3.60535912907742        1.26503953697054
C            1.50214444600607       -0.41024824037516        0.13308462865659
C            2.82607682586344       -0.87966561274144       -0.01021954335746
C            3.34027750665026       -2.17792202221223        0.01734052796410
N            3.91422554789304       -3.17396092936137       -0.02856083521440
C            3.68364608133381        0.20672179673439       -0.34673429944720
N            4.99634198699740        0.11057107087410       -0.59409306070296
H            1.14775273540276        3.03953588876406        0.11597768878651
H           -1.95670766142416        3.68332076533697        1.24138753545704
H           -0.29839338357602        4.14489433285403        1.09979658766346
H           -3.83789634769039       -3.81072885757165       -0.89928859910650
H           -4.87030395855668       -2.44226993565364       -1.18054366504326
H           -1.32472138053592       -3.33898452180686       -0.07694194853756
H            5.52699690966481        0.92579613392602       -0.84691777108464
H            5.45128680623295       -0.78519265045918       -0.54391883997450
