23
 energy: -44.030878291639 gnorm: 0.000657449035 xtb: 6.6.1 (8d0f1dd)
N            3.64685248363711        1.76211617001780        0.80964784616355
C            2.64911606908918        1.26240613694636        0.54219113740101
C            1.39126074488490        0.72666040148598        0.17814525068750
C            0.40627025482122        1.70734106089438       -0.20625044382159
N            0.86519092391735        2.85597385145714       -0.75091765677915
N           -0.86209947993882        1.67303765113972        0.06593014286208
C           -1.84286210485064        0.83068465630188        0.17532974071881
C           -3.13082075560747        1.18116864921035        0.61365619547264
C           -3.96107547600083        0.13371569455325        0.24077876780579
N           -3.31279743340537       -0.87695755809783       -0.35120609562549
C           -2.00915559950045       -0.57335269079033       -0.34711406551466
C           -1.08102909554826       -1.56287421353649       -0.57501540582906
C            0.27923502369951       -1.62850341667997       -0.28080831550356
N            0.87541514122294       -2.82450428861691       -0.28205905524262
C            2.10996280848408       -2.61454031305559        0.19432261186312
N            2.40864621848403       -1.36841927535932        0.50479294640746
C            1.30032040040050       -0.65179639345403        0.19526154051826
H            1.85339607167498        3.03823033535907       -0.79870033989028
H            0.21738399987571        3.61297477625758       -0.89041872161619
H           -3.41291461282032        2.10610905667168        1.07406307462461
H           -5.02719356244080        0.07415195797667        0.37237852897126
H           -1.50592682107467       -2.51941275534254       -0.85781880335699
H            2.81351837268878       -3.41718425364125        0.31528107778202
