24
 energy: -43.757419104154 gnorm: 0.000563164335 xtb: 6.6.1 (8d0f1dd)
N           -2.86750185643309        2.98699361974501       -0.01717771558506
C           -2.40563651959119        1.93434470637448       -0.01181440962233
C           -1.96068099293368        0.61462903446708       -0.00694834459452
C           -2.82694842448845       -0.52165141010431       -0.00527817184083
N           -4.16356432918259       -0.49174808682111       -0.00713716317093
N           -2.13858878648684       -1.66286256319304       -0.00046584621962
C           -0.82186348897238       -1.36720364150954        0.00128184818619
C            0.04179068146949       -2.45002500160874        0.00647677193083
C            1.42403966510321       -2.60475721255548        0.00967412690070
C            2.49251895341509       -1.72862087444166        0.00884334031579
C            2.62344313766815       -0.34024730577924        0.00454543784045
C            3.86776961750915        0.28074109537143        0.00474753215680
C            3.64067648561980        1.66757405401667       -0.00032328808815
N            2.36082205652497        1.97738206700402       -0.00368878554132
C            1.65484505857750        0.81939304981083       -0.00107701424704
N            0.37182384804262        0.93939558931128       -0.00376279088378
C           -0.64707900765795        0.11121704785161       -0.00298285844103
H           -4.67114312067672       -1.35849346654492       -0.00816753420626
H           -4.65233871274359        0.38593908192089       -0.01393474651152
H           -0.51342188887363       -3.38215307716268        0.00843877865018
H            1.72773587200552       -3.64611771293556        0.01367292792699
H            3.45863144786703       -2.22688363605863        0.01227175309413
H            4.82564025907973       -0.20484826092138        0.00812774089493
H            4.38727270455786        2.44266401746297       -0.00157237994457
