32
 energy: -53.534291610258 gnorm: 0.000764656325 xtb: 6.6.1 (8d0f1dd)
N           -0.18515147891697       -4.16818753712313       -1.03174451053628
C           -0.06574901432411       -3.08834076668871       -0.64424292900515
C            0.08405645003153       -1.75652520718156       -0.20918459154840
C            1.42151514791954       -1.36927012865591        0.00604498812799
N            2.34763867829765       -2.35031368313084       -0.11639789280461
C            1.95707927618265       -0.10715195650792        0.38199477255187
C            3.18994165176485        0.00913708134360        1.05342599525391
C            3.59980029620441        1.33470696261400        1.03063460027905
C            2.68632392115580        2.05626107552035        0.27848081309445
C            1.62836512978654        1.20440151471334       -0.09950543885119
C            0.50363874015764        1.69770529818986       -0.80136014579617
N            0.73153446507930        2.69907770576418       -1.67286825794782
C           -0.84007503491281        1.38073009728537       -0.50583041597964
C           -1.83706011375711        2.36499346961485       -0.55295390410239
N           -2.97158497332883        1.98504453521097        0.03748722973683
C           -2.78350172750644        0.72919107168537        0.44111921070286
N           -3.82344107646195        0.05079600616007        1.06354988989090
C           -1.47857774950077        0.24200691653828        0.12878904503132
C           -1.15734086859393       -1.12395900049938        0.11091815128641
N           -2.16906088320107       -1.98601845641705        0.39160228848963
H            2.07781743327207       -3.30438145514540       -0.28738409030650
H            3.31824261012656       -2.12162574298135        0.00176674989129
H            3.69774901289194       -0.78292311148954        1.57654026221751
H            4.47591367128571        1.73254186315027        1.50957922144888
H            2.72359737169021        3.11938086696888        0.11362857878938
H           -0.03577391794572        3.22468112995108       -2.05476550825840
H            1.66199789513537        3.07361587487807       -1.75127932400238
H           -1.75224809803468        3.37867564809065       -0.90356691973439
H           -3.55955453528576       -0.40459914490211        1.92887752422590
H           -4.60953317589380        0.67619099412937        1.19493614453637
H           -2.01514333788976       -2.97080455359286        0.24340921246854
H           -3.11665187082759       -1.64096745889304        0.32743892455058
