32
 energy: -63.934227892601 gnorm: 0.000713018406 xtb: 6.6.1 (8d0f1dd)
N            4.33964855079288        2.29338476165950        1.28898871578423
C            3.78528151524193        1.38327369757294        0.85632130359388
C            3.20783931465558        0.22957022901902        0.33674059177710
C            3.94991419652928       -0.91798284086647       -0.10500135659416
N            5.27867921631734       -1.03243653722980       -0.07923914411761
N            3.15711841437795       -1.88483566171389       -0.56039930611037
C            1.87812951107117       -1.48354631225530       -0.38349651594222
C            0.89580762588290       -2.43122803417328       -0.51045946782233
C           -0.46203501359565       -2.53065786002138       -0.14031774136809
N           -0.92743587960459       -3.80746584852705       -0.16654412787207
C           -1.41485005818666       -1.54366702742629        0.22792226795310
C           -2.62317652724020       -2.10068010358401        0.72125331120519
N           -3.52681768794417       -2.61218099433156        1.21363623968710
C           -1.44818087808143       -0.14192880221994        0.11275355593711
C           -2.65095426002337        0.57636650305520        0.09608218239668
C           -3.97720127717794        0.14119393984239        0.16389759502191
N           -5.10981006404626       -0.05910840908004        0.15885570173917
C           -2.38523059626836        1.96245338735361       -0.15581719157129
N           -3.31831781469007        2.90709457482045       -0.29048301377735
C           -0.99563463328314        2.13040281926662       -0.24152374417493
C           -0.36457733656452        3.35350916631883       -0.47584709577004
N            0.08736589438252        4.38849446014268       -0.68758376873516
C           -0.36171554978378        0.87306250616368       -0.04621748764877
N            0.92227033558900        0.83594357590882        0.09605752467829
C            1.86118170069702       -0.06787200572932        0.08704854397002
H            5.84609517726925       -0.28107692477620        0.27275166974673
H            5.70709642534263       -1.85739162083868       -0.46086400411744
H            1.31966815570183       -3.38261402995706       -0.81842087937454
H           -0.29754558278157       -4.56675347437584       -0.35457958745863
H           -1.86957539836217       -4.02107157128545        0.11475720496760
H           -4.29227612410850        2.67255763639161       -0.18957236015731
H           -3.05039358521370        3.85711965417795       -0.48507846074450
