29
 energy: -55.181239721008 gnorm: 0.000832209619 xtb: 6.6.1 (8d0f1dd)
N            5.30211885320744        0.72528272310543        0.00726879965274
C            4.26348805725309        0.22709696101258        0.00389814597936
C            3.01948901726240       -0.39012149471152        0.00080838122020
C            1.75303762734829        0.21809528846583       -0.00025417968564
C            1.62685114355989        1.59678686330814        0.00166243899151
C            0.56647507200474        2.50592337093560       -0.00135200699700
N            0.94350051751123        3.81646190283606       -0.01205825707457
C           -0.83051789097491        2.31373585835726       -0.00862361270883
C           -1.67890414529173        1.23671675266246       -0.01054655852366
N           -3.00409434407348        1.53266730892473       -0.01522032876057
C           -3.68138341893045        0.39261429897116       -0.01002246264248
N           -5.01727671056281        0.34267144349348       -0.01233538632020
C           -2.81155570684294       -0.74870715158283       -0.00142352156191
C           -3.26632361471310       -2.06352599403028        0.00587627580654
N           -3.74105498319110       -3.11140253088855        0.01245547421791
C           -1.50317781304884       -0.24960902589287       -0.00349592979435
N           -0.48290569914832       -1.07430899909491       -0.00215259435031
C            0.80374236772256       -0.95489471867967       -0.00304906405526
N            1.50526099346856       -2.10294122603819       -0.00497604698717
C            2.79923229367680       -1.80417584694310       -0.00281623703863
N            3.74733834969917       -2.74502792347135       -0.00369025669798
H            2.59697090116317        2.09166731349004        0.00461526016534
H            0.25515921800459        4.54535654639097        0.03986073561413
H            1.91402625772150        4.06942272667089        0.04223490243037
H           -1.39232100699880        3.24357580035919       -0.01267839186439
H           -5.48961003461117       -0.54416547457974       -0.01093028945040
H           -5.54202614706903        1.19894081390161       -0.02253864256754
H            3.46680667542007       -3.70983620409147       -0.00653086302339
H            4.72074479983317       -2.49659574008095       -0.00163008137386
