32
 energy: -63.942099324445 gnorm: 0.000586310064 xtb: 6.6.1 (8d0f1dd)
N            3.97780494312174        3.03700827343929       -0.35593001663821
C            3.11112945638750        2.30182886812963       -0.19341760085502
C            1.99950430953598        1.46714839804579        0.05798750620189
C            0.85838265556703        2.13733847875013        0.63604955906459
N            1.11224419130077        3.20122322423249        1.42753456698948
N           -0.38531841946229        1.90545864880899        0.37280847160175
C           -1.19416431614661        0.95046836665598        0.01672399197412
C           -2.49563044351622        1.21856368020845       -0.44649541677703
C           -2.99600250984331        2.45587134014888       -0.84884033725957
N           -3.44624996596438        3.45846176142618       -1.18710175302416
C           -3.26097495055871        0.02719891105885       -0.35880930266849
N           -4.54868597403280       -0.10305261709732       -0.69009856508766
C           -2.43101265478704       -1.00670479704094        0.14528986421692
C           -2.93411310411302       -2.29515079668280        0.32687794298236
N           -3.48508288390971       -3.30060857868558        0.42462529935175
C           -1.11357807738008       -0.50697615843489        0.28847433212348
C            0.01001762145732       -1.29984015318941        0.47607195445030
C           -0.23878436247581       -2.63713970944321        0.88618782749781
N           -0.37055208432820       -3.70169260023305        1.29274519573782
C            1.37525370643915       -1.08416936901438        0.14394838975338
C            2.25235491875998       -2.13313677179166       -0.04718679416242
C            3.46114984492447       -1.57754469387752       -0.56415564570672
N            4.55096940656206       -2.25602122955540       -0.92998577466103
N            3.39294397106138       -0.25188359933720       -0.66013690872271
C            2.18194536276827        0.12439777634433       -0.20207515528965
H            2.04660493775962        3.56956780065899        1.49200337785338
H            0.33826259429274        3.77966790344767        1.70961729065399
H           -5.01440412169518       -0.98507916791881       -0.55498464126809
H           -5.05899249624108        0.67969207262819       -1.06201634632003
H            2.05878764260971       -3.17771512825405        0.09634984658379
H            5.34004945401415       -1.74417767322693       -1.28454110357491
H            4.60983077478643       -3.24942399490473       -0.79832302531979
