31
 energy: -49.018339971567 gnorm: 0.000584815698 xtb: 6.6.1 (8d0f1dd)
N            2.35705985772788       -2.95032288546142        0.59710490413787
C            2.40538733356756       -1.59172313807046        0.34226237058447
C            3.56235978642959       -0.84252234648463        0.19943405682749
C            3.19866663123725        0.46186601369739       -0.13665755144046
C            1.80722203850704        0.57283597947871       -0.15822087462772
C            1.11999318275792        1.76479861476343       -0.50873475926340
N            1.74296623567123        2.60886081650140       -1.37371392025627
N            0.01321409634858        2.23347708326978        0.00248814440285
C           -1.09886961815740        1.77698548051500        0.51323575140694
N           -1.71207453731185        2.62720244222858        1.37916780729665
C           -1.79976371694534        0.59339562904640        0.16142418992043
C           -3.19239459513651        0.49844718216982        0.13980891189371
C           -3.57106756783788       -0.80128633678199       -0.19775983442887
C           -2.42278640337731       -1.56356879867330       -0.34151746523161
N           -2.39008497968751       -2.92233884230420       -0.59793128239456
C           -1.27668105324056       -0.72970688698373       -0.12492383229921
C           -0.00693609077031       -1.27122296468498        0.00051757985271
C            1.26895121758285       -0.74449313340125        0.12658900328693
H            1.54270954299928       -3.27256184004495        1.09729562312006
H            3.21838454388234       -3.33191284044480        0.95761546419026
H            4.56716862642692       -1.20552344447132        0.32240221467322
H            3.89780169641997        1.26908741596949       -0.27824437305554
H            1.38018773732878        3.54039195364046       -1.48093796012267
H            2.68904736417803        2.41767922638518       -1.64864785370384
H           -1.33860579469734        3.55438280902994        1.48739623342036
H           -2.66029097798758        2.44662105558624        1.65391315880136
H           -3.88220236917569        1.31348593936620        0.28235922582825
H           -4.57998688969768       -1.15257542625230       -0.32108853795657
H           -3.25576449017549       -3.29359053733621       -0.95880609825735
H           -1.57952968740232       -3.25332869225118       -1.09857296020331
H           -0.01319143206435       -2.35850147600110       -0.00011200910201
