34
 energy: -57.776150224826 gnorm: 0.000841013458 xtb: 6.6.1 (8d0f1dd)
N           -2.30895664233186        3.87979359915179       -0.14045864240077
C           -1.92621237094818        2.79358363514170       -0.07940730842713
C           -1.46150350451861        1.46737129455402       -0.00087672924938
C           -2.40111241580077        0.51614324846610       -0.45227969417926
N           -3.41851423309233        0.99897537642713       -1.20398345532290
C           -2.51332898162640       -0.85300907060729       -0.08916629175128
C           -3.77005847629308       -1.47041364019060        0.02959672511291
C           -3.60225045552332       -2.81102916058540        0.37771903347766
C           -2.24997588908861       -3.07088148870735        0.42389970491840
C           -1.53030784906364       -1.87546144418984        0.16844363345863
C           -0.14358912409819       -1.91389809902654        0.06734900919697
C            0.85429583188450       -0.96795603321711       -0.02016761438659
C            2.21212409531389       -1.37878584760308       -0.20118800924842
N            2.65922800760965       -2.63588158884250       -0.44912843548601
C            3.04654229852466       -0.26327006495826       -0.05463205052807
C            4.42753459815821       -0.23977842683551       -0.22410337256269
N            5.56794535818591       -0.20983456376781       -0.38268923277752
C            2.23910532475768        0.85970604154121        0.25183198151428
N            2.77786196596933        2.11085443656560        0.44662598397399
C            0.88134355083681        0.46941934863181        0.25748317905836
C           -0.14814878064213        1.38594512608380        0.55059744673918
N            0.22443463473250        2.47207003746357        1.28257141867229
H           -3.52746078314680        1.99085956407914       -1.34024727665982
H           -4.18931775036845        0.39462269052391       -1.42665121350030
H           -4.72778535023429       -0.98294096436216       -0.04334422244158
H           -4.39589551307581       -3.51038235732946        0.56752464150558
H           -1.79227570849061       -4.01935333978112        0.64197079670870
H            0.23155729103224       -2.93380734410600        0.08629176059235
H            2.02048374598435       -3.32693016759459       -0.80142280494783
H            3.62834642937064       -2.74023636676016       -0.69878741809508
H            3.74334723504814        2.18360443448579        0.15594253559856
H            2.20847736484679        2.89460136093731        0.16078537456531
H           -0.46407765220197        3.16456684442787        1.52604961451462
H            1.06745087098908        2.42520546608577        1.82768769505768
