28
 energy: -45.847232840700 gnorm: 0.000734596931 xtb: 6.6.1 (8d0f1dd)
N           -3.62028170762440        1.62685631455508       -0.56750744616085
C           -2.71363061489177        0.65990367849158       -0.29899979227037
N           -3.11651693668160       -0.58206313811061       -0.05642372907053
C           -2.00712215153173       -1.29680842955757        0.21485313601393
N           -2.16363247486080       -2.63153928821200        0.51915749810316
C           -0.81188641797406       -0.54339137719546        0.10977039027462
C            0.46182071012319       -1.12615840352824        0.00717219683614
N            0.50292290551807       -2.48536387424455        0.03707201694994
C            1.72577665012252       -0.49087149373656       -0.14039697234871
C            2.87238582750499       -1.18797773353724       -0.57373774728632
N            3.98846772903024       -0.45787734376910       -0.51441561059093
C            3.62453246624721        0.71777412947420       -0.01358011191633
C            2.23329665415146        0.81422012820980        0.20736873278109
C            1.69556880880851        2.05331208236073        0.57989598134969
C            0.44649197820554        2.60646946150319        0.47640235261417
C           -0.78359837668698        2.08779574849366        0.05227514420894
C           -1.28996073326563        0.82393329879359       -0.12162673877480
H           -3.32578678788765        2.46709842898779       -1.03299972679515
H           -4.55863741721765        1.30751187157646       -0.73849930678844
H           -3.14469418920215       -2.86414772125798        0.60761464200954
H           -1.60877243845810       -2.96144761459728        1.29725454592137
H           -0.32050648007329       -2.99526832823591       -0.24419011187388
H            1.39353703774487       -2.92172968170292       -0.12968380306234
H            2.93966416486117       -2.18129360460390       -0.98799813944337
H            4.34948886799680        1.49825790386453        0.13705416465998
H            2.46411340766642        2.74991638116054        0.90344173443941
H            0.40180165818512        3.66263371867284        0.71973842406475
H           -1.52936176090529        2.86591862665501       -0.08395788933861
