26
 energy: -51.999540495942 gnorm: 0.000802932126 xtb: 6.6.1 (8d0f1dd)
N           -4.04848371088958        2.33335063754603       -0.71867741094032
C           -3.40377619275858        1.41680224038172       -0.46077618224045
C           -2.66787283797240        0.27276969348017       -0.15377278945822
C           -3.21711748738430       -1.03959396114890       -0.05905201227655
N           -4.50025500944349       -1.34163615065732       -0.27486688068259
C           -2.19268648013805       -1.93589964322252        0.29139775120410
C           -0.98983179456243       -1.24877454789510        0.40705622420929
N            0.13946120561906       -1.87552611549037        0.58785516766848
C            1.38258541799555       -1.61103609147397        0.34741721126598
N            2.31855025956303       -2.56176437403124        0.49267334375926
C            3.39712966344647       -2.09149884681439       -0.12672890414289
N            3.31318031793768       -0.87292688298524       -0.64950908129647
C            2.08862283009628       -0.43283234342827       -0.30736649380141
C            1.82507581468706        0.92286392201684       -0.28761143036128
C            2.86973423594163        1.76132323828248       -0.73861852788879
N            3.67587389546247        2.49922979825416       -1.09115665466057
C            0.69382675663875        1.61749796854749        0.28672717013171
N            0.94242155714507        2.82755289567498        0.82937514143101
N           -0.55912099418842        1.27602711328414        0.23408200668918
C           -1.30081578346267        0.21628701918389        0.15795200019352
H           -4.82432270809627       -2.28819673685118       -0.17848728323025
H           -5.15333817395275       -0.61942191290944       -0.52926886567949
H           -2.30104325099088       -2.99532412739496        0.41859417526277
H            4.29654647716842       -2.67451441500018       -0.20853533259556
H            1.85030454476221        3.25205837281304        0.73624108162319
H            0.16050330867506        3.39087440683815        1.11843191171561
