28
 energy: -51.456795929849 gnorm: 0.000734834001 xtb: 6.6.1 (8d0f1dd)
N            3.73801931240451       -2.89431833804544       -0.56124508069302
C            3.31937959796055       -1.83388722466686       -0.39510564541214
C            2.84870104935290       -0.54302733858608       -0.18574334707940
C            3.61748209154444        0.50932517468470        0.39550971494283
N            4.88826012168062        0.37892217250057        0.81330306788095
C            2.82472327439693        1.65666136606903        0.45905235499332
C            1.57805034664620        1.38932940272909       -0.11188791115599
N            0.77629675786422        2.33947485159720       -0.51876761147006
C           -0.45513148347136        2.36912720819447       -0.93028298440947
N           -1.49340993221965        1.67796491647439       -0.53788975388376
C           -1.69536300042131        0.44475476227214       -0.20096438453625
C           -2.94025909687446       -0.01307805961665        0.29755426913200
C           -3.99529815928815        0.76721754948850        0.76499533829479
N           -4.89653992673075        1.35441033714516        1.17345847922173
C           -2.98798519551451       -1.41857180510206        0.15317031478765
N           -4.03567199354637       -2.19403245497903        0.47696544428463
C           -1.75163140263094       -1.86168455219858       -0.36210542281069
C           -0.89192230448554       -0.78065538810883       -0.51485592589733
C            0.48521858768036       -0.93314425691111       -0.66741560062590
C            1.53938698684209       -0.07262334260631       -0.42883201121603
H            5.38158525472463        1.16862390857146        1.18832679934268
H            5.38841542023615       -0.47557638466917        0.64093207755878
H            3.13777220328659        2.61856126561312        0.81570391625348
H           -0.70634703993543        3.23320992690261       -1.54224364495195
H           -4.87957769080840       -1.77147796635405        0.82391329257206
H           -4.02866668768615       -3.17570700670907        0.26585592488772
H           -1.49773797175903       -2.89002469912130       -0.54364216776759
H            0.79082534225220       -1.96868924757108       -0.79531413034182
