35
 energy: -56.679253690970 gnorm: 0.000620172317 xtb: 6.6.1 (8d0f1dd)
N           -4.45252026904126        0.10706485670915        1.17303629636909
C           -3.40243287328513        0.08246873658332        0.69355903403591
C           -2.09590578642958        0.05168630015970        0.17016486780019
C           -1.63792574222791       -1.25750156098017       -0.13693286777945
N           -2.62927419896835       -2.19000132295181       -0.21306488207739
C           -0.33860166516666       -1.74142073595279       -0.37947807397054
C           -0.11979960592480       -3.04292678620172       -0.88887281666062
C            1.20242692238662       -3.39156039545870       -0.72023765572696
C            1.85167029410852       -2.34819306282712       -0.05273117667157
N            3.20261826350894       -2.38556559460782        0.29718619242052
C            0.93588349339497       -1.28255472836468        0.13144443184218
C            1.35799437730932       -0.03212049497721        0.63670727889910
N            2.41716021386096       -0.05884942629084        1.49241616989342
C            0.99652141751453        1.23863123474298        0.13512656649077
C            1.96251978469822        2.25952737460726       -0.04595118727882
N            3.31362383177435        2.23095770457571        0.30416265892995
C            1.36433716908914        3.33478050788837       -0.71056989046422
C            0.02693373433263        3.05058421167648       -0.88034915516405
C           -0.25431827558081        1.75967590260487       -0.37462708656240
C           -1.57546173633589        1.33812618890370       -0.13360200807083
N           -2.52088263347548        2.31733046149066       -0.20751700084006
H           -3.58092830078204       -1.92612389861370       -0.02252098033175
H           -2.39188318044854       -3.16454649574384       -0.19677235150786
H           -0.84708803377395       -3.65548913542070       -1.39125643355830
H            1.66883071424761       -4.30677351359464       -1.03860406311511
H            3.69078160556032       -3.12743420616949       -0.18774530908849
H            3.68505310608354       -1.50152404749918        0.19712026258440
H            2.62491121281233       -0.92888513259199        1.95403369133673
H            2.66637646562071        0.79880806449818        1.95667392300014
H            3.75305184761149        1.32504577747434        0.20167453077045
H            3.83696065526210        2.94988631849925       -0.17861923738123
H            1.87427173458880        4.22741064529505       -1.02629064485713
H           -0.66993261761480        3.69880964952405       -1.38109773711128
H           -2.23697801248005        3.27927527630050       -0.18853056234592
H           -3.48414877572980        2.09897262471254       -0.01771559520879
