31
 energy: -53.032664890705 gnorm: 0.000523979653 xtb: 6.6.1 (8d0f1dd)
N            4.10984921748697       -1.73079462975208       -0.38020483211639
C            3.25915991317031       -0.69337355149507       -0.19205344587064
N            3.74416350522998        0.52117728542549        0.09906818370858
C            2.67421132210659        1.30470369507882        0.30836086770948
N            2.85201490495076        2.63053411667316        0.55287600262502
C            1.43554547799009        0.61330481361819        0.16809113985470
C            0.22195533489180        1.28096717133843        0.10096220564123
C           -1.07951035473760        0.84795937657709       -0.07757689703703
C           -2.16873600864001        1.76691480681486       -0.22656096816876
N           -2.09030602892882        3.12633699800763       -0.29330272446487
N           -3.35783170103519        1.16540562269825       -0.25363623634155
C           -3.11107623556422       -0.15035365318155       -0.09098550409743
N           -4.16106583874999       -1.02594463221795       -0.04918026311294
C           -1.73332496231168       -0.44437259581759        0.00889692207561
C           -1.21263053632852       -1.72919905781415        0.26962561724314
N           -2.07210477234749       -2.64397053627975        0.84721370434727
N           -0.08907417997345       -2.28329294166115       -0.11865570053623
C            1.11459029281821       -1.89652553150405       -0.43433907115401
C            1.83325351580241       -0.74704042293639       -0.14913698102180
H            5.07399060181174       -1.48222086195205       -0.52484614540494
H            3.76782994846059       -2.55246285401180       -0.84832286304541
H            3.79967813781822        2.89406353179469        0.76789751194818
H            2.12886361607539        3.11854042109237        1.05382466121065
H            0.31509664897857        2.36093414324459        0.17609701986162
H           -1.25049471440986        3.52672633704192       -0.67711795817843
H           -2.95120542959627        3.57436010744675       -0.56326031029872
H           -3.96056500594522       -1.96654954184405       -0.35557473123522
H           -5.02077103903677       -0.62915065259342       -0.39776603622093
H           -2.76904891854140       -2.27941402115257        1.47638404175213
H           -1.62975909481068       -3.50706140203616        1.12406916016561
H            1.67808364226443       -2.70262557280181       -0.90929619353880
