21
 energy: -35.775591294707 gnorm: 0.000460473440 xtb: 6.6.1 (8d0f1dd)
C            3.45415291027556       -0.93785124081524        0.00097031832764
C            3.15904332863111        0.41504303529423        0.00325416574008
C            1.75741544885112        0.60209456735195        0.00397203704676
N            1.29696677618850        1.81901368753440        0.00609827822595
C            0.09647219328784        2.35824874914821        0.00735284004637
C           -1.20832768028166        1.87978816994964        0.00706182714936
C           -1.77814863113428        0.61005648220344        0.00521545736861
C           -3.16420203949485        0.41572932410988        0.00538585888961
C           -3.38489932693999       -0.96436044047143        0.00313979959511
N           -2.25828841330841       -1.66013164155230        0.00157021334421
C           -1.23073171402258       -0.78381437732702        0.00269185665126
N           -0.03722420170885       -1.30028737625964        0.00144177293533
C            1.16734889666096       -0.79983347734512        0.00187272199357
C            2.26672692514783       -1.67107595965878        0.00013742358952
H            4.44324264794686       -1.36067924611576       -0.00001503645135
H            3.86274616230284        1.22626763737818        0.00435294088596
H            0.16878055198950        3.44538519021372        0.00905279389169
H           -1.94978029932066        2.67381639629345        0.00860408668873
H           -3.91453603120410        1.18413580266483        0.00694730201252
H           -4.33440473993014       -1.47010799432518        0.00262157501090
H            2.17477636726328       -2.74084752517145       -0.00156596604189
