25
 energy: -42.693996916656 gnorm: 0.000438327056 xtb: 6.6.1 (8d0f1dd)
N           -0.94443304244663        3.48010366542980       -0.06223482972341
C           -0.68955789659155        2.13288025481076       -0.02078654166154
C           -1.85368088107579        1.33758163567213       -0.01771734399028
C           -2.16303643184407        0.00060091853679       -0.00869352955577
N           -3.49320803572421       -0.27956492826870       -0.00214938419027
C           -3.62292545306034       -1.59898483463991        0.00848741270675
C           -2.39614685411246       -2.26012276118237        0.00860230503999
C           -1.40210972399438       -1.27377141250736       -0.00235629695734
C           -0.05376461175181       -1.58348873330301       -0.00797575893346
C            1.10262466903771       -0.82461696307956       -0.01703034534432
N            2.28284551371489       -1.47264199069694       -0.01533809286496
C            3.21200886966141       -0.50714195964514       -0.02264575215726
N            4.52561978294217       -0.77629713595559       -0.05856195538650
N            2.73809103261833        0.75056818646691       -0.02492935609088
C            1.40050092645820        0.62337536267360       -0.02412402236670
C            0.66067955946654        1.79692451619018       -0.02316661931371
H           -1.87986319893359        3.81386442150548        0.08466920545929
H           -0.19064041389945        4.13075143795323        0.06801155611883
H           -2.76833454461866        1.92544639629516       -0.02320651149904
H           -4.60245633582180       -2.04509137006094        0.01551034125699
H           -2.23675499984024       -3.32104243765928        0.01614314642863
H            0.16182326280480       -2.64767590829107       -0.00368059940929
H            4.82239795051528       -1.72574409857828        0.07393420927323
H            5.17329730849559       -0.02039547128504        0.06762285179238
H            1.32602541720004        2.65599024091912       -0.02811749613136
