26
 energy: -47.202247882477 gnorm: 0.000964008657 xtb: 6.6.1 (8d0f1dd)
N            0.35779948902989       -3.61019351147397        0.94850236603491
C            0.14059233930280       -2.52354407099157        0.65335287914157
C           -0.08051931865724       -1.15437169322423        0.33651508416641
C            1.07640502025617       -0.37538045087794        0.24192311616414
C            2.34939562407386       -0.92422728410655        0.26293120050662
C            3.28914918758464        0.04987197313235       -0.15177479321998
N            4.60798935031871       -0.16608252301928       -0.29302777152617
C            2.61460898650312        1.25373297603795       -0.38162986526743
C            1.25788542868156        1.08475665430187       -0.09033113307930
N            0.47902239823102        2.12157881832152        0.01302242816617
C           -0.78864088621763        2.40812805302024        0.17499828084216
N           -0.99819841197014        3.67342662049953        0.63331800493796
C           -1.94750777627084        1.68331886884888       -0.18747509570341
C           -2.18187318761628        0.33808539004470       -0.31524406777458
N           -3.43788224583962       -0.07078844517001       -0.63557945277964
C           -3.42571720721873       -1.38079253657507       -0.47587848860334
N           -2.26976013374653       -1.91796606617733       -0.07488949633169
C           -1.41690134149316       -0.88646075917023        0.02014019311346
H            2.58698527660376       -1.94447485276707        0.50044091273048
H            5.21300128418448        0.56493723391081       -0.62031691375061
H            5.00173740215535       -1.06183073427623       -0.06881907446347
H            3.06067170113572        2.18368460727804       -0.67578254950058
H           -1.91948402500151        4.07006690002977        0.64798687911987
H           -0.19999656471771        4.26558434553353        0.77891901534719
H           -2.83082879999377        2.28611366508678       -0.36486135018727
H           -4.29443053962150       -1.98787909661358       -0.65500554278644
