25
 energy: -42.674476051570 gnorm: 0.000758246571 xtb: 6.6.1 (8d0f1dd)
N           -0.97451917330140        3.39910325430713        0.28667757948963
C           -0.71883765640131        2.07310722377010        0.04495414903558
C            0.64651396308080        1.76311843926206       -0.20108361182411
C            1.35172963684857        0.59217305865083       -0.16940757247569
N            2.69609966868556        0.67712139316906       -0.36309369274550
C            3.21488900634960       -0.51732235194847       -0.09725014762044
N            4.54811430260992       -0.73015351569392       -0.12379793050882
C            2.22336844872718       -1.47051172573618        0.25008723458274
C            1.00231297814089       -0.81677296667898        0.18416226770862
N           -0.12520122759181       -1.49709125568864        0.33974385203625
C           -1.37286277209861       -1.19035621300202        0.21637532456917
C           -2.35347701259154       -2.21371264844012        0.21553100127927
C           -3.56118933615243       -1.68279330453814       -0.18209677949586
C           -3.43265713869879       -0.30239376955749       -0.40153719498181
C           -2.12991586066962        0.09454070289937       -0.11979030729402
N           -1.80486568316169        1.36159459306017       -0.07482097685518
H           -1.91535686172596        3.63933031296340        0.54675347339771
H           -0.22847378949134        4.00885713789995        0.56796442176554
H            1.27150285809243        2.62812061168298       -0.39277700748056
H            4.89313010268475       -1.67363068141207       -0.11820722363162
H            5.12112838076084       -0.01324112192819       -0.53412144281570
H            2.37901888201609       -2.50331705760244        0.48932353379011
H           -2.14505723759543       -3.23829998707925        0.45706798770675
H           -4.47655154231006       -2.23666417576212       -0.30208251699884
H           -4.21901749630682        0.36314931630292       -0.70490177723302
