25
 energy: -43.470009180147 gnorm: 0.000742981973 xtb: 6.6.1 (8d0f1dd)
N            0.05339215062254       -3.45716077940782        0.03028246048669
C            0.16075421065831       -2.31623193686309        0.02604009223292
C            0.24147300618619       -0.89109967897954        0.01954295493878
C           -1.00372507596042       -0.23960930442867        0.02037879146226
C           -2.19312995894132       -0.95642830621022        0.02522268243620
C           -3.29042818966035       -0.06460625145250        0.01665662476171
N           -4.59028149390864       -0.42940392467884        0.05521359089106
C           -2.78248203747126        1.23303062680335        0.01013992299181
C           -1.37527236528933        1.19748583286659        0.01221534048330
C           -0.66066416522337        2.37990788832006        0.00803445575444
C            0.69380015065616        2.75255797146265        0.00510252186523
N            1.84190680436308        2.14512700095746       -0.00019114693708
C            2.22370267792452        0.88508440705240       -0.00086936245378
C            3.59274842216280        0.57570648627389       -0.01126129959761
C            3.69476429699807       -0.81274524682457       -0.00641844070258
N            2.50816752386000       -1.41071561435030        0.00619076933170
C            1.55854171858589       -0.44807216275261        0.00934379503562
H           -2.27415821831439       -2.02745729242322        0.03291576113086
H           -5.30465537443638        0.26175214784804       -0.09004961344828
H           -4.83342986483482       -1.39530435698032       -0.07650726488469
H           -3.36980852812411        2.13265994873983        0.00439972161401
H           -1.31386127091118        3.24799926811302        0.00684546051709
H            0.83320270031906        3.83444454553546        0.00554331521459
H            4.39074830429635        1.29047767386587       -0.02034065881227
H            4.59264013864438       -1.40491059318655       -0.01134647181243
