29
 energy: -49.590895283772 gnorm: 0.000494207027 xtb: 6.6.1 (8d0f1dd)
N            3.29701502172519       -2.44138738200798       -0.32553593927159
C            2.91474292780364       -1.14071926275428       -0.22263869407015
N            3.81759506899819       -0.16318434336331       -0.24307152302930
C            3.13458572707855        0.97741014188541       -0.03933155903966
C            1.76166521901353        0.78535845230385        0.06816960141295
C            0.82402946445281        1.81599537802057        0.36590073468281
N            1.27926232286749        2.85781866705184        1.10059402579436
N           -0.38894341220480        1.95548756876564       -0.09003289003406
C           -1.39605204667308        1.21165465189453       -0.46429127614258
N           -2.32172218742965        1.87110958327282       -1.21964004008556
C           -1.72809296381738       -0.09336901112416       -0.02869314505056
C           -3.03841044910975       -0.59684006558222        0.08160545464422
N           -4.22558848682263        0.07488076936328       -0.10926150529776
N           -3.06105139076036       -1.90830147561042        0.40621613234983
C           -1.79611132641995       -2.28992818610174        0.47656256879224
C           -0.87961780251951       -1.23732825613220        0.24480756377440
C            0.48638813174907       -1.47725179917204        0.14048779509393
C            1.57294030759024       -0.64785908972681       -0.04455296779937
H            4.25094662251959       -2.58123107748584       -0.61493283544109
H            2.62457087481360       -3.11433256249191       -0.65150661031386
H            3.66846044337001        1.91270763441455       -0.04343923070429
H            0.68752645721691        3.65912082119597        1.23227212402629
H            2.24339541819008        2.89481852834409        1.37560652890359
H           -2.03615586482352        2.74714038733613       -1.62488023110757
H           -3.01021273127481        1.32398473464253       -1.70827315627300
H           -4.22081076674349        1.04827888765634        0.15993195531711
H           -5.01225436993010       -0.44616689211279        0.25213258322058
H           -1.54687560601403       -3.31223157087351        0.70035243965959
H            0.73436582225291       -2.53273866320797        0.21839311248770
