26
 energy: -51.995430774235 gnorm: 0.000968336970 xtb: 6.6.1 (8d0f1dd)
N            2.30198270254051        2.99470867199761        0.41444774559623
C            1.50327437338733        2.18445379134761        0.25377744146726
C            0.46753484934771        1.25276053250496        0.01990212763351
C           -0.75821910783961        1.87110383102480       -0.43710408500659
N           -0.63046702974705        3.04583039056924       -1.09893242096606
N           -1.97797110884992        1.52092424069152       -0.15704966852179
C           -2.68460941528176        0.46092233446589        0.05573265205438
C           -3.97562149109768        0.44110431564296        0.60210917055532
C           -4.33540140451738       -0.89343552147271        0.69492523415704
N           -3.35820214608021       -1.74139164217862        0.33688393538848
C           -2.32205239879110       -1.02036026479915       -0.06912434740717
N           -1.19700070355467       -1.57727718494882       -0.37677905783275
C            0.05858120549014       -1.30457695215694       -0.41269401293184
N            0.94130925909420       -2.25601451650946       -0.74632842518592
C            2.13939976347596       -1.87267549700450       -0.30022433871487
N            3.21957026898462       -2.63866449966723       -0.43608517499819
C            2.11257393810050       -0.57119769790419        0.30452607467360
C            3.22302552034187        0.00800551118485        0.90950416407272
N            4.18722225036180        0.38292372478130        1.41299281788546
C            0.80866421788977       -0.09041774785378        0.10893978258814
H           -1.46387484149772        3.57703226337730       -1.28749193267932
H            0.26257237914881        3.50727018326726       -1.14828431926196
H           -4.58196158997637        1.29833006889442        0.81541157154419
H           -5.28434244560933       -1.28956941602494        1.01110100333126
H            4.09434812481942       -2.36292761831608       -0.02342135602765
H            3.12369470896203       -3.53520593950523       -0.88091126570781
