23
 energy: -43.240268849132 gnorm: 0.000675508278 xtb: 6.6.1 (8d0f1dd)
N            4.40138009336823       -1.34376518927072       -0.32082442528070
C            3.24987474459923       -0.68434220773979       -0.15025680100443
C            2.94941335237508        0.62467941051727       -0.54882319426701
C            1.68591757072724        0.90392684431737       -0.04029173054993
N            1.17797615965249        2.07931197739203        0.15018166113091
C            0.00122650011856        2.49703101620134        0.53260522773373
N           -1.17753380455221        2.07972177975477        0.15597002364861
C           -1.68681441296190        0.90451325043358       -0.03200392283853
C           -2.95288771562116        0.62571063821837       -0.53433156472976
C           -3.25184117232362       -0.68321294524896       -0.13431297542160
N           -4.40441920270116       -1.34221155691929       -0.29918487859754
N           -2.21569689566433       -1.30864347897478        0.48518998555419
C           -1.19651186619444       -0.46865274102561        0.50393889769195
N            0.00115863962704       -0.91609223556627        0.74722138968067
C            1.19777468303533       -0.46906733877734        0.49806516167264
N            2.21656790217006       -1.30940793044637        0.47433075400105
H            5.16700225987548       -0.93219717953427       -0.82203515000417
H            4.47572050715946       -2.27468795283723        0.04974371216883
H            3.60686581861863        1.30914577790349       -1.04566112163530
H            0.00268877087001        3.44887130548528        1.06013047735836
H           -3.61253344064623        1.31041250764168       -1.02792954149934
H           -4.47719038745453       -2.27319176186074        0.07155552500170
H           -5.17225208157742       -0.93047706426385       -0.79686390301435
