35
 energy: -67.906194242583 gnorm: 0.000989205232 xtb: 6.6.1 (8d0f1dd)
N            4.62399802504742        2.97574554367304       -0.96083987308104
C            4.01706209684267        2.03876030327835       -0.68161616239352
C            3.29470228588769        0.89620406138978       -0.34291932167470
C            1.88194516713411        0.83640275302226       -0.13389631284096
C            1.15568307455871        2.00281423394280       -0.15003044514812
C           -0.15764477999882        2.40357748733265        0.17007634405120
N           -0.27792072655897        3.74773005594072        0.34832969327553
C           -1.35752072885659        1.65922031890040        0.25762471402787
C           -2.46882293276304        2.44415826050837        0.66480469511107
N           -3.29973905783513        3.10228238266192        1.10787892292619
C           -1.70595500388913        0.31854987253500        0.00016741636675
C           -3.05069092475162       -0.03330696082790       -0.23992581435838
C           -4.13993007848227        0.78519579090295       -0.55329395828230
N           -5.08896793991996        1.34119539417440       -0.88828460046406
C           -3.18023356187537       -1.44821632325988       -0.26840590472377
N           -4.30989638631431       -2.12711022215466       -0.49878096781338
C           -1.90390225931077       -1.98991701338781       -0.01728548092784
C           -1.64293932191235       -3.35909140326057        0.04116870557999
N           -1.47927514401126       -4.49648392719250        0.08528849375862
C           -0.95473468928583       -0.93895613354196        0.09930101195831
C            0.37758150362686       -1.26089822681058        0.28555253381609
C            1.56988181201230       -0.56088454035354        0.17846073695813
C            2.80156425906222       -1.25019669637656        0.23220320804540
C            2.99690617886631       -2.59728195301040        0.53778598790898
N            3.21630144236465       -3.69859157656021        0.78526211977751
C            3.86360407874413       -0.36517433535150       -0.10151614761814
N            5.16207605309350       -0.69053236012777       -0.16598508813215
H            1.78651198167984        2.86200326003874       -0.36991522008003
H            0.53582726350880        4.33580510953189        0.32655622923372
H           -1.16611786853311        4.16504935815823        0.56718819088733
H           -5.16492716137836       -1.63099149236605       -0.68559695050739
H           -4.30429491147936       -3.13253017898717       -0.51139051958290
H            0.53205902746181       -2.32648721679602        0.44514688957442
H            5.45808753324581       -1.62983742187964        0.03592494871987
H            5.84544993741854       -0.00130668704324       -0.42715814674948
