32
 energy: -59.119733165784 gnorm: 0.000992764347 xtb: 6.6.1 (8d0f1dd)
N           -3.08796911261092       -3.08350569580826       -1.13163255451942
C           -2.40889287167612       -2.25691434050022       -0.71085393499525
C           -1.54741358311840       -1.23463215218659       -0.23585915931314
C           -2.16207817149237        0.02090643758695       -0.21105318923242
C           -3.51535607665331        0.17812326523329       -0.50933919586109
C           -3.93631457273261        1.46879001802821       -0.14388032742062
N           -5.18935974627411        1.94548438199089       -0.26524667296779
C           -2.82756906165303        2.17652603051456        0.34778216034566
C           -1.69086538062211        1.36952956687281        0.26672025741254
N           -0.52011454026625        1.91266746085740        0.45101304344522
C            0.71803775749927        1.53356953153850        0.27836990864664
C            1.71378548227660        2.52198032330922        0.23570527277783
C            2.94863672668227        1.93208532579626       -0.01195822280147
N            4.13418823474198        2.54143246973513       -0.17887263993206
C            2.76233511701103        0.51347069454587       -0.05266853287417
C            3.83015011283210       -0.33173638827254       -0.35352891004693
N            4.77659960794726       -0.90477078436687       -0.67163045243269
C            1.40279851799037        0.21556571253317        0.13431504217804
C            0.95411598512425       -1.10045411938851        0.34068125593321
C            2.00066821985203       -1.98172634102245        0.72066172180765
N            2.79355657362188       -2.71478378839175        1.11344012019182
C           -0.29960418271315       -1.74296473129738        0.22963991293993
N           -0.31526565927089       -3.07042545698439        0.54852456154257
H           -4.16350440976365       -0.58375200361959       -0.90135993799832
H           -5.92323471145510        1.35332812456910       -0.60986971123321
H           -5.42343457967985        2.85234101655438        0.09588283039279
H           -2.81854884825572        3.19873767061837        0.67168413480167
H            1.51650429350685        3.57192902342073        0.32737517112458
H            4.94918677458783        1.99320610537662       -0.39566969801067
H            4.19797570818250        3.54309289160573       -0.17784660849023
H           -1.14096183618065       -3.61582505095782        0.36894772789158
H            0.55010990636233       -3.55969106728853        0.70439225800068
