26
 energy: -52.011045861739 gnorm: 0.000583452488 xtb: 6.6.1 (8d0f1dd)
N           -3.38751866516314       -2.97915780950190       -0.08874153372447
C           -3.01331621256952       -1.89226849533700       -0.10759727914459
C           -2.65349047934093       -0.54433908537580       -0.09393949822072
C           -3.54285920720158        0.50031646729365        0.36117329456767
N           -4.79219368061408        0.26791432655726        0.77980458937011
C           -2.87845439076206        1.71524860611418        0.29456563798358
C           -1.59798218611357        1.52173672464385       -0.24015258459495
N           -0.78997442420446        2.48753162682658       -0.53229610987812
C            0.46965080871588        2.49341035609022       -0.89809286605707
N            1.46070399001611        1.78644567497741       -0.44225968480916
C            1.67101538445477        0.55758319252296       -0.12639190458265
C            2.82260406164919       -0.03829540308273        0.39604431974549
C            3.85388763416611        0.52601913618005        1.13708077426087
N            4.72790034334264        0.94060626854629        1.76011000644587
C            2.80590574067054       -1.38610610566094       -0.09757404255944
N            3.78932522306763       -2.27047225529551        0.05357379809737
N            1.68467147344410       -1.69910444683320       -0.75933401717569
C            0.86944189131593       -0.64743262262171       -0.67048505004063
N           -0.40684548816716       -0.74572985363080       -0.75966111496341
C           -1.43373649968782        0.01293149339179       -0.45671494821750
H           -5.15771963033927       -0.66946547349598        0.77449932354882
H           -5.37505600650843        1.02344108573929        1.09406339787233
H           -3.28039104939841        2.67296431626019        0.56208786193745
H            0.76215538869741        3.33735244548422       -1.51812600945231
H            4.59694783776992       -2.04711337226516        0.60922581504098
H            3.68812630225619       -3.18133729343387       -0.35986906425162
