21
 energy: -39.782341959783 gnorm: 0.000654710922 xtb: 6.6.1 (8d0f1dd)
N           -4.36311852188769       -0.88291410940606       -0.00123239613709
C           -3.10841818125486       -0.43223872291422        0.00005813830617
C           -2.68931674517368        0.92604357026237        0.01103715765919
C           -1.30922026726204        0.92539615219774        0.00831360734381
N           -0.66043862274378        2.08224536737574        0.01684870566469
C            0.58889458949174        2.42635376748714        0.01693778496385
C            1.82483086608124        1.75015045015230        0.00764757827156
C            2.17326496103733        0.42202046370860       -0.00492602345349
N            3.49013739157409        0.09970779157880       -0.01094656739277
C            3.52809096926799       -1.21984118347238       -0.02152220991567
N            2.35013649640494       -1.85490286825612       -0.02355364709858
C            1.42780104914022       -0.89390147617950       -0.01373810487534
N            0.16499707509217       -1.23910402535562       -0.01369423879754
C           -0.94232195453221       -0.56825256911039       -0.00550034507879
N           -2.07527854265424       -1.28123588242539       -0.00953734588764
H           -4.51185870078314       -1.87764323133774       -0.00950072899457
H           -5.14501616616954       -0.25294686446166        0.00600760354671
H           -3.32400209444018        1.79002441038058        0.01988243246739
H            0.69269800845857        3.51176516090455        0.02643224454467
H            2.68895851060800        2.40534995832714        0.01126674856117
H            4.45718334644492       -1.76128323625592       -0.02819990609764
