32
 energy: -63.944110022575 gnorm: 0.000625553051 xtb: 6.6.1 (8d0f1dd)
N           -5.27902569211437       -1.73386675349539       -1.05270252644843
C           -4.39121801550448       -1.07253738320557       -0.74062734925288
C           -3.34972301728619       -0.22441123014605       -0.38017720314966
C           -3.43269672273697        1.20172057124656       -0.30404950315485
N           -4.49722464148045        1.94756299750700       -0.59692388180003
N           -2.28723081107989        1.74770822528850        0.11624481823906
C           -1.39144449358562        0.75968673701688        0.26541666300233
C           -0.05637049526489        1.11305947962505        0.45722729727155
C            0.06677870192069        2.49906354253265        0.75841528074749
N            0.11725623909422        3.59905375147013        1.07569587085562
C            1.14310879636053        0.41018314933628        0.22550069496242
C            2.37125184501897        1.06863401500951        0.10056769761714
C            2.72863411559196        2.40868501630888        0.27654902013038
N            3.21787047172251        3.44491495546289        0.37366274331086
C            3.38269250589699        0.14302266281624       -0.33628295208541
N            4.65788866046837        0.47110883109371       -0.57396355590243
C            2.78494208682108       -1.10893533433413       -0.45639975011048
C            3.44001586003916       -2.28170061880848       -0.82516010529463
N            3.99153977087233       -3.24471069424059       -1.12916842484245
C            1.40504719103546       -1.01909777154837       -0.06080721979173
C            0.70367566625636       -2.16629014739471        0.15792956822199
C           -0.61656490955186       -2.40962363660489        0.66467890190772
N           -0.77243046068044       -3.54604567225199        1.38151804950605
N           -1.71099234023697       -1.76418129323718        0.40944057232865
C           -2.05858595905909       -0.55701260875721        0.05215453562529
H           -5.34370634191854        1.52424486086536       -0.93521538772912
H           -4.43900402334095        2.94270616170045       -0.46540054072143
H            5.31020853151803       -0.22106258915807       -0.89902751415011
H            4.96326120754412        1.42054677656334       -0.43954911867918
H            1.26332094363778       -3.07747105144786       -0.03189382374085
H           -1.70331497670341       -3.81956022244177        1.64625933662401
H           -0.01748164026310       -4.19894985246581        1.49041471158927
