20
 energy: -40.063467215131 gnorm: 0.000956708773 xtb: 6.6.1 (8d0f1dd)
N           -0.01600098621565        3.30454815565658       -0.42052189447489
C           -0.07141551539329        2.03317828704418        0.02080842154626
C            1.16956400827410        1.50295641287429        0.54396581387917
C            1.68756405397504        0.25564878564609        0.42490026947786
N            3.00875300063303        0.03330729018735        0.65188130317281
C            3.30184613881669       -1.01042662263042       -0.09605660205918
N            2.29159827175001       -1.61835193372436       -0.73887351185223
C            1.19713552788510       -0.95708540638113       -0.36983445207670
N            0.00404239245290       -1.42752842464838       -0.50084206825217
C           -1.20513689417228       -1.05825338119646       -0.27322869238614
N           -2.20095384226841       -1.93457943818678       -0.07162767670959
C           -3.24673720428664       -1.20373771305811        0.27513377069438
N           -3.06148216194077        0.11856244263843        0.38637249819087
C           -1.80077718664440        0.32471118333214        0.02744729327444
N           -1.24740011713389        1.49402194610547        0.04316432365451
H           -0.85734114647253        3.73733715578665       -0.76331788962816
H            0.83807765194399        3.83124012633651       -0.38606675141792
H            1.85588287043647        2.24137023867318        0.94391120178040
H            4.30831938890964       -1.37920453087960       -0.18173377140664
H           -4.20800889794917       -1.64719158617577        0.46244909809303
