28
 energy: -45.853169144936 gnorm: 0.000799754752 xtb: 6.6.1 (8d0f1dd)
N           -3.35396784216012        1.67134685642643       -0.33018950814387
C           -2.77246446820015        0.42818684618385       -0.10053928060610
C           -3.51375458762763       -0.70412558833572        0.28150888496995
C           -2.64005719018943       -1.73425176670203        0.52319216809108
C           -1.31371159086239       -1.30065387652771        0.27737477529348
C           -0.27034641166151       -2.20253980133516        0.41374713355582
N            0.94723562504110       -2.24911108836726       -0.05554710324496
C            1.85788472042010       -1.37620313583836       -0.37739285720573
N            2.87385272618102       -1.83295985108185       -1.14462963383136
C            1.96304769864970       -0.02926178865522        0.09101161624263
C            3.14668111355053        0.60921976515335        0.46777156232444
N            2.96139111304272        1.91143041282810        0.71201026310935
C            1.69147293610178        2.16755548822315        0.41504068451227
C            0.97494039034429        1.00843233219855        0.05129401312265
C           -0.38130669610995        1.04460678539137       -0.37840325436543
N           -0.74886897963428        2.20312476611966       -0.97635350190519
C           -1.39618289155110        0.09629501214493       -0.13839101761841
H           -4.33294356551382        1.67739117640794       -0.07346969827955
H           -2.86066963696571        2.44736127560067        0.09296195007974
H           -4.58394078597635       -0.72861833663025        0.38603325826518
H           -2.90378322948790       -2.73171658209714        0.82425697579650
H           -0.54661107259180       -3.13486693185047        0.90600073367994
H            2.91433334006884       -2.81426705117742       -1.36378930333631
H            3.69879699598175       -1.26870846929254       -1.24455439978487
H            4.10876286750043        0.15516113028795        0.63190180498663
H            1.29592666386669        3.15926512922747        0.55550173934739
H           -0.03047616927979        2.86882604133464       -1.20357256982633
H           -1.63192790554188        2.25364208255627       -1.45604199963145
