24
 energy: -47.771037292676 gnorm: 0.000882969920 xtb: 6.6.1 (8d0f1dd)
N           -3.06996528976990       -2.85306573901242       -1.42499545072466
C           -2.62705220690796       -1.89184996621978       -0.97241174153385
C           -2.18267382245526       -0.70447278603159       -0.40474740137833
C           -2.99530286705917        0.13145470122549        0.45201606005949
N           -4.25346845460111       -0.14141535073555        0.78847008854230
N           -2.36186532274355        1.20912305873809        0.90808956266634
C           -1.17683891033207        1.24161453726836        0.27957914875633
N           -0.52518809794752        2.30522558112800        0.02731550338150
C            0.57374051171507        2.59444105509200       -0.64577789896459
N            1.77193693216283        2.13090981830376       -0.50451716782501
C            2.20158281251541        0.93445706118624       -0.19751636980714
C            3.46236632774291        0.58670417277128        0.23927831170433
C            3.50716503110296       -0.82454125927158        0.25188999032931
N            4.54686525991366       -1.59460097635713        0.57933652570232
N            2.33324246892508       -1.39424014578810       -0.09782516912224
C            1.47304498666728       -0.41758029557613       -0.34994020249842
N            0.22747783235184       -0.70784360234224       -0.57246832080932
C           -0.91351219445838       -0.12752865347739       -0.39139792938220
H           -4.72447466837413       -0.93815474268343        0.39487112926513
H           -4.72847434828205        0.46807594529568        1.43162747649477
H            0.48561524629441        3.48451297917883       -1.26558937215025
H            4.26611524529714        1.25223612449656        0.48061957155218
H            5.43093093995868       -1.19357409844111        0.83469210624600
H            4.44134123399182       -2.59222768224286        0.51496202699464
