22
 energy: -43.531221886959 gnorm: 0.000951025959 xtb: 6.6.1 (8d0f1dd)
N           -1.09280884918931        3.04451274684086       -0.59469951339065
C           -0.63917634822372        1.94438603309655        0.04427450866263
N           -1.57131990093892        1.21574837421556        0.65565138571254
C           -1.89359993852866       -0.02044515316683        0.61285683805056
N           -3.00389975400531       -0.53386507019924        1.15325624897984
C           -3.31812413934563       -1.58027893729156        0.38544079818308
C           -2.39127753565955       -1.89266685406850       -0.61416271579493
C           -1.30981147736365       -1.03799570969494       -0.40269203822602
N           -0.06809538400530       -1.20710670542897       -0.70777247817942
C            1.05167522895933       -0.65244763475083       -0.34885684047290
N            2.17183977477670       -1.36100723903320       -0.26822507385971
C            3.10957217419257       -0.49416927475275        0.16631714566137
N            4.36790162566164       -0.87444917248013        0.36174119582517
N            2.70316998324656        0.76823570531452        0.40517205253015
C            1.41474156927042        0.77868522446195        0.10458974903650
N            0.66762528171362        1.83571275873656        0.16658825340256
H           -2.05735965906250        3.30596205867239       -0.48463427050645
H           -0.41993319962091        3.73800747254338       -0.87335254350429
H           -4.22923468078320       -2.11780461318283        0.58887118918701
H           -2.43674649760852       -2.71828736270616       -1.29449838383105
H            4.62508016863480       -1.82753241970938        0.17642084935290
H            5.03825107977948       -0.20294325461641        0.69071587208102
