28
 energy: -50.651112615548 gnorm: 0.000945449632 xtb: 6.6.1 (8d0f1dd)
N            4.58073849376761       -1.25909891272482        1.14958681600458
C            3.71106316033476       -0.59471380843196        0.78613724558594
C            2.67561041307771        0.22053777039659        0.34757357965774
C            2.79497771624355        1.57650325969236        0.01770073497753
N            3.91890392564484        2.31259043398155        0.09025863338580
C            1.52649196476930        2.04548760159306       -0.40081445104644
C            0.59248675582561        1.02623536444170       -0.34060715174767
N           -0.67990263964006        1.31738881638826       -0.55571526581397
C           -1.79284362383146        0.68997995562105       -0.37763401273467
N           -2.93373653425514        1.40192837876459       -0.40744666165672
C           -3.89570763710731        0.62625798085492        0.10006471375491
N           -5.14139190338151        1.09766434954527        0.25770897373829
C           -3.44938266198195       -0.68139823631450        0.42115463370919
C           -2.12400466488857       -0.74139226687112        0.04595409482924
N           -1.44757521862489       -1.86109357482753       -0.08310776596217
C           -0.21109348759538       -2.20725985476952       -0.24473846605922
N           -0.03169437052822       -3.46650448417882       -0.73499806771939
C            1.00070809158940       -1.52562916601362        0.12055899768790
C            1.32975196272594       -0.20880874168887        0.08709450266618
H            4.77542286703402        1.89552701967110        0.40928392712845
H            3.91145062713232        3.27827978154429       -0.18205659736648
H            1.30050025179109        3.05432367603816       -0.68763292108223
H           -5.86968094391378        0.51979354257956        0.63396152829125
H           -5.34601021103610        2.02610791106397       -0.06558355922049
H           -4.05019818403296       -1.47753017665494        0.81458488241351
H            0.87042175186964       -3.90481845684032       -0.70405798364355
H           -0.84663178813162       -4.03462513927376       -0.88582730967654
H            1.81146563284796       -2.19716488678837        0.38846131239369
