30
 energy: -49.312394064155 gnorm: 0.000423593112 xtb: 6.6.1 (8d0f1dd)
N            2.50439523782422       -2.01436937984527        1.34928547975829
C            1.73050827930241       -1.30751398670822        0.49103447923577
N            0.64471270482738       -1.91579008267843        0.10925687039669
C           -0.54875674075974       -1.63167323532619       -0.34199711519045
N           -1.16445976936749       -2.68256888901775       -0.97475992970024
C           -1.32728002622330       -0.48854762471378       -0.07131578458945
C           -2.73100678771669       -0.46168243073448       -0.01682769629764
N           -3.60098602886567       -1.51938997679230       -0.12316733715362
N           -3.22563329777649        0.78122911385741        0.17305791878346
C           -2.17786746115156        1.59917564706654        0.19701520221184
N           -2.35646976032080        2.94283154176497        0.30364725288886
C           -0.92441091676943        0.90735234754251        0.06094031653211
C            0.26527608669205        1.57578734882550       -0.11527684037254
C            1.59570488409820        1.17175084402534       -0.24906124534654
C            2.61327924518832        2.11273896371370       -0.54915222271922
C            3.84152176490433        1.48872864569284       -0.51239056866937
C            3.63980552455859        0.15726928356592       -0.13693647967597
C            2.26932452870712       -0.07452282759388        0.01419478286601
H            3.41886894793466       -1.67781730921972        1.58731604138847
H            2.22195828906204       -2.93954203886883        1.62058964123848
H           -0.55420283486303       -3.42582985816167       -1.27523501810573
H           -1.94406436321330       -2.46376491355329       -1.57293229553354
H           -3.25450500422456       -2.40296154423746        0.22075971085021
H           -4.53112844695602       -1.28332221588780        0.19087808449825
H           -3.28681290578679        3.22902626136420        0.55953626572762
H           -1.59968042286525        3.49563942653019        0.66801076308675
H            0.15362028763768        2.65493700895488       -0.18801086021573
H            2.43365277074546        3.14868713228034       -0.77765345232018
H            4.79433510515975        1.94079423156627       -0.72289664610343
H            4.41719938581696       -0.58338164471209       -0.04630211406893
