22
 energy: -44.316369006321 gnorm: 0.000807277636 xtb: 6.6.1 (8d0f1dd)
N            3.17856151944679       -2.58006321223580        1.36041357311309
C            2.63229226374429       -1.66272588209043        0.93077881321157
C            2.03793608734272       -0.52673912082230        0.39583541705084
C            2.72819884696974        0.48447754719936       -0.34960255152693
N            4.02572037767950        0.47127046907653       -0.63764738022328
N            1.93032546587314        1.47840657338508       -0.77547422535238
C            0.74180487199886        1.28161127462036       -0.22137988486939
N           -0.12120475839737        2.17152365374722        0.06329840096279
C           -1.31807209500880        2.25156355655147        0.58402460887136
N           -2.39926217559408        1.59315932097756        0.27901457667798
C           -2.61582873495477        0.34646990828570        0.03626090195872
N           -3.78988648606026       -0.11465732952356       -0.39213848491426
C           -3.68051852480594       -1.42954124038136       -0.55388590975479
C           -2.39791748932541       -1.92086525075743       -0.29759953638456
C           -1.63786496925299       -0.84204516119485        0.15002696282664
N           -0.35728184722249       -0.90836374162111        0.36989778106528
C            0.68136013908791       -0.16775798362248        0.35072665433292
H            4.62183438132023       -0.25417976185495       -0.27767739479382
H            4.40406387911496        1.20536901572615       -1.21131677048242
H           -1.47039316253930        3.11768548952658        1.22432601653312
H           -4.54245444726345       -2.00277194285846       -0.84689349628776
H           -2.06741042715702       -2.93819834415341       -0.36272946591755
