34
 energy: -56.965940594993 gnorm: 0.000753580886 xtb: 6.6.1 (8d0f1dd)
N           -1.94917581856337       -3.70273787314142       -1.28822622825073
C           -1.58520655849601       -2.70693991651604       -0.83295710342994
C           -1.14659893198965       -1.48076420029034       -0.30467265104959
C           -2.07720235796809       -0.44295800326394       -0.35993674926852
N           -3.28711957467538       -0.68911876681980       -0.91553919070442
C           -1.92043010191463        0.85525027322863        0.19865318890096
C           -2.94930036776586        1.57503794270554        0.82050088250671
N           -2.56173924810790        2.80271027528556        1.17567107639830
C           -1.31971637421604        2.94661554405615        0.71844576357142
C           -0.82763098909971        1.77079202130915        0.12128861992386
C            0.45329831819852        1.67980168011169       -0.49214587928332
N            0.87799845923182        2.83153878516411       -1.07708044854633
C            1.32689342480537        0.59094639375940       -0.41106480188606
C            2.71996628711313        0.71865893653661       -0.66728330506169
N            3.33029869691115        1.68789084669231       -1.45647060297141
C            3.41433930033372       -0.22147745673653        0.09165020516979
C            2.49770421527107       -1.01222427807019        0.76833615542964
N            2.84834055834131       -2.06065967649689        1.61349505876227
C            1.17204192184483       -0.64434626648077        0.37017562512972
C            0.12590650655742       -1.56504601861402        0.37229972702537
N            0.33089392786696       -2.77803980538208        0.96372813721986
H           -3.99394148506851        0.02196881843836       -0.85062365696880
H           -3.55086986558276       -1.62453715026228       -1.17885439749660
H           -3.92678551648034        1.21502054498891        1.09392567593964
H           -0.78248566831577        3.86085892369886        0.90989484732453
H            0.28801526633072        3.63542680600327       -0.92953089455167
H            1.87336785596228        2.99651821566956       -1.13389281823234
H            4.33181689234716        1.55754134401611       -1.51800074017347
H            2.91206257201565        1.79333130145208       -2.37187039509369
H            4.48476434911589       -0.31348217716527        0.14822115390851
H            2.32608923199948       -2.07822259134567        2.48046267140842
H            3.84581748310944       -2.10016327435811        1.77939906760730
H            1.28635698584576       -3.08421445860850        1.08708097047448
H           -0.34709166255748       -3.49857937876428        0.76676683226764
