27
 energy: -51.727788759900 gnorm: 0.000733428165 xtb: 6.6.1 (8d0f1dd)
N           -3.96678003051192       -1.83246779103633        0.03565271963115
C           -3.09424069280329       -1.08324640531926        0.01160969352860
C           -2.20772661160633       -0.00753866586348       -0.00031711000924
C           -2.70700881698303        1.33948571421878        0.04079621332596
N           -3.99581014498869        1.68388094987397        0.07981431407369
N           -1.71770002821637        2.22247421809445        0.03383546223941
C           -0.54344665096439        1.54721449805518        0.00053836155754
C            0.56639947306241        2.36247776334008       -0.02971138253100
C            1.96561933901078        2.23170003256447       -0.04572927274043
N            2.63670770488444        3.41516255597734       -0.11530249652755
C            2.78796370780025        1.10119389965295        0.01149831971997
C            2.58080211993808       -0.26055351507256        0.05275916432649
N            3.67936773175198       -1.04398764076866        0.11478347222225
C            3.22684468198647       -2.29146187443991        0.10240709810584
N            1.90810528388166       -2.43152070060168        0.02912814084011
C            1.41587998710248       -1.17830990626719        0.00427104465697
C            0.03258459982606       -1.03064621322206       -0.05605933338842
C           -0.61860064346665       -2.29455862244800       -0.15592347580352
N           -1.13405488576959       -3.31183798169446       -0.26522300140371
C           -0.81035426373237        0.08870331953345       -0.02010782113868
H           -4.70688922634846        0.97307309323381        0.08764728178962
H           -4.24610524154905        2.65583255068365        0.11520207893417
H            0.24222300707751        3.39991838415620       -0.03550399260578
H            3.63998776828504        3.43204993713211       -0.08494633439896
H            2.13947587361722        4.28731392214714       -0.10545230615100
H            3.85032439380622        1.32561607495605        0.02721153815147
H            3.88459268870943       -3.13954640718595        0.14918192019516
