22
 energy: -39.511211828747 gnorm: 0.000462043339 xtb: 6.6.1 (8d0f1dd)
N           -4.27425887622597        0.88757190813899        0.17868706705354
C           -3.02248361745792        0.43215921342344        0.03898010254340
C           -2.52082787018239       -0.79273292844444        0.56136522791464
C           -1.24343478634515       -0.92119339144229        0.06299540333523
N           -0.56888330324436       -1.99810523034742       -0.20535704488973
C            0.65312532646922       -2.29560493735163       -0.50116382329657
N            1.78892658921522       -1.74139923120635       -0.10869750151256
C            2.15538582974580       -0.51778319791519       -0.01305101387400
C            3.43755581663114       -0.12793555216831        0.47629299142868
C            3.54726789172683        1.23109854816295        0.39462394646056
C            2.33185464951560        1.79098153474803       -0.08155077184637
C            1.43194964354487        0.78725477876678       -0.36003492177464
N            0.17571522085908        1.05461824213210       -0.66124717823524
C           -0.95465055726730        0.47643611881108       -0.54698443200789
N           -2.12278275108279        1.12496924678406       -0.66735714125287
H           -4.93214413391429        0.41563754670214        0.77079541479816
H           -4.51974715854744        1.75687598993793       -0.26009155845681
H           -3.06550762818469       -1.49754445037215        1.15731609506912
H            0.78156525679282       -3.25675709693781       -0.99468079235260
H            4.19318491071091       -0.82862920235960        0.77512639415686
H            4.41618825771320        1.80902671664256        0.65589268016184
H            2.13068361852751        2.83887602409442       -0.19696297002256
