24
 energy: -47.776132365870 gnorm: 0.000985292906 xtb: 6.6.1 (8d0f1dd)
N            4.12145174443742       -1.46483001961517        1.41183194878892
C            3.29019183601989       -0.82140300030386        0.94643536312837
C            2.33008985098848        0.01262662375371        0.38015590824394
C            2.56462589386192        1.33351531063273       -0.08535532067685
N            3.71711091462157        2.00013781691509       -0.03627223893114
N            1.45838387442428        1.89338085753417       -0.61718423615234
C            0.46068657447223        1.01706455259921       -0.50657690146633
C           -0.84095965842429        1.45831710933767       -0.69549981575106
C           -2.03785659186444        0.92137730985638       -0.25393350716029
N           -3.12145959178664        1.69115104240222       -0.11997700764277
C           -3.96927018728292        0.97524256538219        0.63258449144079
N           -3.57586640314970       -0.22709765008011        1.01444399631358
C           -2.37897241955609       -0.39800570839770        0.41940578944764
N           -1.83181638518697       -1.55897502454443        0.32516008771612
C           -0.69560984487713       -1.97326566240810       -0.21331036997191
N           -0.74760784013115       -3.14677270055607       -0.87543706400377
N            0.50498923926433       -1.48369006320421        0.01795578895722
C            0.99653074674809       -0.28362784202865        0.04267792533367
H            4.52491421964712        1.59284968538973        0.40227580463105
H            3.75981537595334        2.92741900198860       -0.42225920386220
H           -0.91285673728632        2.48452770215215       -1.03640337994020
H           -4.92906412809941        1.36946661436070        0.91490339135127
H            0.11480753013804       -3.62106382275191       -1.08159297263838
H           -1.60550664602582       -3.67087818491696       -0.84967035315511
