24
 energy: -43.743717529298 gnorm: 0.000626224662 xtb: 6.6.1 (8d0f1dd)
N           -3.63049865181899       -1.72912521611834        0.75640638460845
C           -2.62631504870186       -1.22779562116383        0.51393455609746
C           -1.35159714461641       -0.70150353708000        0.19506780710455
C           -0.38434834041154       -1.68990336574734       -0.21478646970216
N           -0.87760928242481       -2.83900663057368       -0.74331729459095
N            0.90037014503232       -1.68120116779697       -0.01529517995552
C            1.87627232309346       -0.82674045439841        0.08632380646127
C            3.16698560553254       -1.21471803660658        0.46061507016601
C            4.03503748159414       -0.13280938548616        0.30848812893548
C            3.33552284640832        0.98171995687165       -0.13204094247526
C            1.96993148867052        0.65569498493058       -0.24233640036469
N            1.07892676708732        1.57861870642062       -0.42189477317624
C           -0.21793652734900        1.63738276965374       -0.24920904844820
C           -0.91809715727509        2.84927560643442       -0.35261370620789
C           -2.19387969429844        2.62180435852197        0.16294243207903
N           -2.37972555297666        1.36486156161388        0.55113735498033
C           -1.25606826245725        0.67783142136671        0.25045637159254
H           -1.86550248864847       -3.02678132068182       -0.71152699079970
H           -0.23878096962771       -3.60339117200551       -0.88156855339137
H            3.43784405432901       -2.20909414163748        0.76090060117750
H            5.09337942728681       -0.16428998406222        0.49804160895674
H            3.73777858459258        1.95683166276922       -0.32776459035276
H           -0.50997914994583        3.77831250816347       -0.69603553723419
H           -2.98592898417381        3.33955791901128        0.28196489063787
