22
 energy: -39.521894864310 gnorm: 0.000932130166 xtb: 6.6.1 (8d0f1dd)
N            4.24910635580448        0.84977382257869       -0.15843554260091
C            2.98009786395894        0.46118357180554       -0.04339557816308
N            2.52773115768136       -0.64140848104856       -0.69012540647372
C            1.29350835966353       -0.80906760773203       -0.25466435991775
N            0.61333289935220       -1.86237225217766       -0.11930279472045
C           -0.54746465922610       -2.34853583102480        0.20695168621347
C           -1.83357518927819       -1.81223995205315        0.09277892113404
C           -2.25633862495959       -0.50130488499866        0.11001890364201
C           -3.59415998728864       -0.11670198092483       -0.13142513772075
C           -3.65694819230281        1.25583410226162       -0.26059968507137
C           -2.37604682597941        1.79929626953281       -0.08421148036339
C           -1.48044581382158        0.77410119471524        0.20156204130380
N           -0.22674275669744        1.03968250619075        0.49570300703663
C            0.92924230579358        0.54684556043102        0.48621421636904
N            2.10013567058832        1.13409788620838        0.71356098901434
H            4.86384491808493        0.33972009775870       -0.76561591426687
H            4.55933517873684        1.66270676675098        0.34121043747877
H           -0.48211742310317       -3.37948174939486        0.54639470313716
H           -2.63042250286939       -2.54774557826330        0.05030204792042
H           -4.41790067222726       -0.80177434899138       -0.21148146858501
H           -4.54504890366079        1.82740043625100       -0.46314594880238
H           -2.11626506125021        2.83988446762327       -0.11897947106406
