30
 energy: -59.704570296612 gnorm: 0.000974687343 xtb: 6.6.1 (8d0f1dd)
N           -1.79970542922469        3.53141734212768        1.32764459034270
C           -1.46118280696086        2.50550658549722        0.94254939348729
C           -1.03243823896647        1.21534271324453        0.53234841043698
C            0.35857019793080        1.08010125662749        0.33352423390109
C            1.18370323721725        2.19282049502642        0.36784849175600
C            2.45274421868191        1.87104561022726       -0.16497975147433
N            3.47894259022681        2.71494923993448       -0.32586788055106
C            2.45355775230809        0.50221914146671       -0.50612207447151
C            3.56687132679169       -0.11135065924460       -1.07925589428265
N            4.53546186053926       -0.47918970554007       -1.58040503508615
C            1.20541676463745       -0.06310787963611       -0.12573965458723
C            1.03226368368786       -1.42286167439891        0.00971011146895
C            2.10131115482339       -2.29497039988514       -0.29002673706511
N            2.90000794692122       -3.10061619874959       -0.47354179671596
C           -0.11012904223789       -2.14723461066317        0.55609819452052
N            0.17157878181730       -3.15514182248376        1.40967484167734
N           -1.34306292245206       -2.00618666925678        0.21206907357435
C           -2.14239150187885       -1.06256592779980       -0.19092668938673
N           -3.32493069931990       -1.30819937281723       -0.73807526896163
C           -3.98546781905082       -0.13215954064235       -0.64977074734094
N           -5.22962642896909        0.01306720241677       -1.09587912684505
N           -3.31203922561786        0.88495814321593       -0.07915061478702
C           -2.09295958346820        0.39344097066231        0.15951922202548
H            0.88381438447003        3.17802565673187        0.67182919330359
H            4.32661457902048        2.39375538802127       -0.76258586822822
H            3.39731657058059        3.67717415748941       -0.04973172331624
H            1.11905524980507       -3.47610790084690        1.52060662280303
H           -0.58177225279174       -3.76864650955000        1.67355691552804
H           -5.69248905811318        0.89551985896014       -0.97133544714284
H           -5.68858218671256       -0.76490760773607       -1.53395287228654
