30
 energy: -50.085838881536 gnorm: 0.000405094746 xtb: 6.6.1 (8d0f1dd)
N            4.73499094380446        1.34930035335986       -0.02134214682049
C            3.81994481268054        0.64748898808691       -0.00731482032611
C            2.73303350190931       -0.21754453264258        0.00310654313942
C            2.83613699099570       -1.63151349019948        0.01078912930009
N            4.00002058688262       -2.32404952786108        0.06951711674605
C            1.54633762045216       -2.15589764268607        0.00869322404007
C            0.60183590772091       -1.11593505231413        0.00035534657667
N           -0.66725768731706       -1.43707192082988       -0.00287098686398
C           -1.79667458846018       -0.78497656069159       -0.00649395658976
C           -2.98855981546589       -1.52139419489589        0.00130366247302
C           -4.08106571216407       -0.64907468598094        0.00227609041034
N           -5.39105748009623       -1.00972562241900       -0.04075803139623
C           -3.59355318406010        0.66712362480568       -0.00861966764646
C           -2.19652076724546        0.66410273396054       -0.01390746571215
C           -1.49950522183627        1.85917275858147       -0.01986139496517
C           -0.15628171350078        2.24473448782333       -0.02059945999568
N            0.04446657487127        3.61109390196962       -0.08821501753173
C            1.03033966546992        1.49805898182534       -0.01385677254367
C            1.36376679219149        0.16101917965701       -0.00491787162278
H            4.86117497213122       -1.83115161918705       -0.09567474906546
H            3.98357909223450       -3.31241520328849       -0.10977598628748
H            1.28818754004077       -3.19731815760316        0.01362362071960
H           -3.03178723999177       -2.59338232459619        0.00835114120377
H           -5.62595660437769       -1.96476497799108        0.16749082350368
H           -6.08578099562639       -0.31368951391195        0.16814819068119
H           -4.20901120666423        1.54983334253893       -0.01378398982559
H           -2.17031783990360        2.71676250800389       -0.02898639299782
H            0.96176213710147        3.96695360347998        0.11941728901909
H           -0.72464124242987        4.21895637208374        0.13429575394826
H            1.91330864965309        2.13561209362206       -0.01796611067072
