25
 energy: -47.478995067864 gnorm: 0.000703363718 xtb: 6.6.1 (8d0f1dd)
N            3.50795014022892       -2.34188201812870       -1.20803341804810
C            2.85029578904685       -1.49405734600813       -0.79241435419376
C            2.15606675021843       -0.40342921693235       -0.28195785338844
C            2.79706414771670        0.76496650770543        0.26970977811045
N            4.11977590814150        0.94824319881909        0.32897913684255
N            1.92697682941069        1.65370656085135        0.71768798438496
C            0.68255172705887        1.20073959360471        0.40216861324056
C           -0.33257466431726        2.10590201055204        0.36220539574108
C           -1.66411973684592        1.99464609584620       -0.16653866787945
N           -2.16536287037909        3.12774874842440       -0.71959954643887
N           -2.50270729856020        1.01280240651378       -0.06308915213903
C           -2.48758054245185       -0.28353034700019        0.06047233731055
C           -3.58342089759663       -1.05832414573667        0.42727835143748
C           -3.16917023904256       -2.39124825700654        0.34619634076965
N           -1.88688495871716       -2.53821501678610        0.03803093289331
C           -1.36443548653250       -1.31112849805326       -0.11488777803789
N           -0.09003842613772       -1.17639693944533       -0.23225359468255
C            0.77986244336007       -0.20766448891693       -0.11829916592539
H            4.48085780713715        1.75769170541583        0.80156866344779
H            4.74358363768017        0.23014452692175        0.00465067916106
H           -0.03755672513393        3.10819985023806        0.65023997186912
H           -3.11732649463397        3.13165999502547       -1.04101287039871
H           -1.63693259280511        3.98048551160230       -0.71950424798364
H           -4.56976187285773       -0.70036605165166        0.64671649143153
H           -3.78323587128636       -3.26266404135457        0.49638037027116
