26
 energy: -46.406750149278 gnorm: 0.000315991116 xtb: 6.6.1 (8d0f1dd)
N            4.57427016661444        1.50479739673810        0.29405946893671
C            3.34658263573123        0.97836562090063        0.11735694162048
C            2.17834588711654        1.70649958841836       -0.25761450796155
C            1.14154128353691        0.80193175121742       -0.30087821026748
N           -0.09030412915355        1.21270091364302       -0.59052049341517
C           -1.26235185650892        0.71884457483862       -0.42763883339009
N           -2.33855305275063        1.51621518303433       -0.58900965628444
C           -3.35552585266565        0.91971897262245        0.03188028791299
N           -4.56382980085975        1.50693782079005        0.09002575560556
C           -3.03442375026619       -0.36730788594690        0.54217700696674
C           -1.73255891588302       -0.61620304435418        0.16734511650300
N           -1.18172153016265       -1.80413145777215        0.11240495810163
C           -0.00423198591838       -2.31771285415121       -0.04970082289739
N           -0.01813053096910       -3.65557089704335       -0.35018600475938
C            1.29480214712249       -1.77513807960133        0.20349295460382
C            1.77173232263032       -0.50751305291370        0.08387605381375
N            3.10228669526148       -0.30641633468179        0.31817113583137
H            4.76591528016066        2.43641607041806       -0.02699223043310
H            5.34016952398313        0.87045048462840        0.43770681515590
H            2.11749508626412        2.75615466848508       -0.46349415723452
H           -5.26534107268243        1.15510175177447        0.71607679584911
H           -4.64055827745353        2.44664823523177       -0.25831599681856
H           -3.70647803041830       -1.03193618898590        1.04840292738701
H            0.82179512003967       -4.09210727320434       -0.68601029823974
H           -0.90036585908767       -4.04507927578587       -0.63649261009011
H            2.04896039791829       -2.50811304349957        0.46376136120390
