23
 energy: -39.240436599392 gnorm: 0.000677927554 xtb: 6.6.1 (8d0f1dd)
N            0.04944265398996       -3.47311494769876        0.02904579290445
C            0.01187622562662       -2.10640657729003        0.00759620807367
C            1.28429672802647       -1.49902023252312        0.01564962840546
C            1.79725199651935       -0.22546927481816        0.01124449581138
N            3.15575820039556       -0.16014517963903        0.02007001456552
C            3.49734653558561        1.11849924834526        0.00690615633756
C            2.38956408050766        1.96837300036272       -0.01196129749582
C            1.25212534562618        1.15336689737960       -0.00818770940931
C           -0.03157701428961        1.67489716308617       -0.01624207393122
C           -1.28618764702645        1.10071441760092       -0.00488466255269
N           -2.36166979162736        1.92248930981296       -0.00560190074870
C           -3.41369950027274        1.11705363159580        0.00798642399503
N           -3.15278274822540       -0.18740574601447        0.01378615733509
C           -1.80563490551879       -0.28043754682203        0.00761869935274
C           -1.26990020077567       -1.55735591218522        0.00640714325537
H            0.92365429918512       -3.95846446640088       -0.05308868495313
H           -0.79938933383266       -4.00212664223221       -0.05611890781855
H            2.09770132909406       -2.22058108998768        0.02793474100579
H            4.53522689670644        1.40198410590188        0.01134501562406
H            2.40126990178781        3.04092492550774       -0.02557041803725
H           -0.07805282133682        2.75971899291481       -0.02959399360320
H           -4.42036941409209        1.49413859732994        0.01266277167779
H           -2.06547531375327       -2.29763340152621        0.00855810770597
