30
 energy: -59.696127300037 gnorm: 0.000479653415 xtb: 6.6.1 (8d0f1dd)
N            4.89145332378317       -2.00132089507045       -0.81444255557865
C            4.16394314900128       -1.15530124488284       -0.53416987177951
C            3.32216461217765       -0.09522047867171       -0.20356659304218
C            3.71683150772115        1.26627629283970       -0.15407222573544
N            4.94222778423559        1.71829337481781       -0.44015482675016
C            2.61131299834932        2.04964074462026        0.24274335070216
C            1.50899895856691        1.23434179671170        0.43592855027343
N            0.32248610230434        1.73147913756026        0.68486814828621
C           -0.89764455986975        1.34850001811501        0.51124477490503
N           -1.86965603364152        2.25537555525054        0.70969002176570
C           -2.98298674938521        1.79147301689679        0.14659212481522
N           -4.11631027858328        2.49389825811916        0.12795739448482
C           -2.81179332844624        0.48004153667085       -0.40939533086041
C           -3.82623379336310       -0.17940729041907       -1.09577458934541
N           -4.72284836984895       -0.61357471757238       -1.67214477938476
C           -1.50471826823585        0.09068506274801       -0.08560034348342
C           -1.07820491951503       -1.23273729711496       -0.01357933898409
C           -2.02868031922866       -2.22532472235116       -0.33768548261215
N           -2.75219209633123       -3.08710550666066       -0.57236809023881
C            0.15143778679077       -1.77424520803146        0.50000622471428
N            0.08697278240828       -2.98412475058279        1.10429609652929
N            1.36186574656587       -1.31468334000017        0.33542485333014
C            1.97140177329417       -0.18594277478358        0.18849417944115
H            5.15562275979032        2.69753975583710       -0.36875096545433
H            5.66350702776378        1.07480996695215       -0.71983556534148
H            2.60746275104580        3.11729697816057        0.34529773188098
H           -4.13051801874968        3.40398199772386        0.55369036382569
H           -4.92309049486493        2.14342167252161       -0.35901571908619
H           -0.76364309252686       -3.52131996577299        1.07688598158944
H            0.95437992539427       -3.45394371912724        1.30379992863161
