25
 energy: -47.477029413166 gnorm: 0.000847643397 xtb: 6.6.1 (8d0f1dd)
N           -2.57522245596405       -3.17692112575958        0.62207485295584
C           -1.81195239347262       -2.34588775659326        0.40199765927304
C           -0.84022174310788       -1.36264834931173        0.12304722522429
C           -1.28456306360875       -0.05401883914682        0.02357063844942
C           -2.62026356642668        0.30941532763928        0.24312857564947
C           -2.76977973537717        1.68176996539681        0.05222099822272
N           -3.90605533978755        2.38766685611191        0.16699366694981
C           -1.50284817498772        2.22900892380908       -0.29126814371895
C           -0.55505602648812        1.22672515535094       -0.32644083385214
N            0.69707877655731        1.54619398144503       -0.59110291373874
C            1.84738157471157        1.03817007940702       -0.35332533249595
N            3.00290692737858        1.72689734633204       -0.46163404326995
C            3.85212114069479        1.07031827323177        0.31019674033659
N            3.44089770241628       -0.07431638045484        0.87679458835289
C            2.21302825578000       -0.25182333163408        0.39221204193169
N            1.60863054408495       -1.38413570010885        0.31235264697184
C            0.48465266475140       -1.89622108199755       -0.08795628228164
N            0.56904899507350       -3.13010116853912       -0.64722795856417
H           -3.40835093607632       -0.37504129728339        0.49698164868155
H           -4.76774619616574        1.92867549441200        0.40236307254723
H           -3.90471447710879        3.38038902037971        0.01658212551091
H           -1.29679377761352        3.26474145419966       -0.47986370846698
H            4.84970390135411        1.43576455307922        0.47856329972394
H           -0.25863401380625       -3.68994998253623       -0.76248331362870
H            1.46623555978977       -3.58592640772844       -0.64041742466386
