31
 energy: -59.414706543689 gnorm: 0.000799975446 xtb: 6.6.1 (8d0f1dd)
N            1.97170829758939       -3.49854921239029        1.09784565559314
C            1.58070705634503       -2.46252190568589        0.79907857631085
C            1.07191527968005       -1.16944609887971        0.49908199731902
C           -0.33465799064507       -1.10503349690299        0.36634574090811
C           -1.09576589830499       -2.26226973404437        0.36101674766238
C           -2.40199261840430       -1.98094990665665       -0.10405888173959
N           -3.38942992835758       -2.87259677650025       -0.26882158331990
C           -2.48738750938663       -0.60119923471392       -0.36786190237892
C           -3.65160713447022       -0.01776120160367       -0.86390168772617
N           -4.65768045545813        0.32296696944255       -1.30724200661417
C           -1.25348197500329        0.01015967197686        0.00444539558062
C           -1.14523214544758        1.36666784742472        0.20364860797307
C           -2.25635690160625        2.19796740474722       -0.05674411216091
N           -3.08561101433585        2.97792639591553       -0.21491114534548
C           -0.03255508482768        2.13715373707549        0.75485955868450
N           -0.36942776203420        3.10576527351877        1.64256221246150
N            1.20265045003836        2.08845670529220        0.40246375536631
C            2.04196683322421        1.20165869928603       -0.08691620569536
C            3.26312173675487        1.49450775929391       -0.66334395552251
C            3.99356192438667        0.28288754968213       -0.66479975648993
N            5.24364336407402        0.09293590751934       -1.10282787707655
N            3.29897357242166       -0.73958187731021       -0.13326073988202
C            2.07704788912230       -0.27249746315261        0.15404810643985
H           -0.73355262043123       -3.24549180961311        0.59557703320404
H           -4.26905045995270       -2.57725591103830       -0.65704786419196
H           -3.24208842503318       -3.84205643667381       -0.05310245048351
H            0.34671876235641        3.76304544090447        1.90353238141471
H           -1.33183957342339        3.38094717517529        1.74624082662621
H            3.61282272778071        2.45239544125769       -0.98976903389532
H            5.64080296812835       -0.82676189720239       -1.02446066032416
H            5.74800181271999        0.82621276915537       -1.56582312799928
