26
 energy: -51.222033209355 gnorm: 0.000605402986 xtb: 6.6.1 (8d0f1dd)
N            4.72434341705408        1.27811812792618        0.66365139022666
C            3.78339746873369        0.66433832564506        0.41358678111190
C            2.68117151456932       -0.12838171852306        0.11498106198542
C            2.70541665376743       -1.55577701415715       -0.01379094143105
N            3.78142713103479       -2.32779622909199        0.13423931402377
N            1.50826011398466       -2.06777312159240       -0.30325208794269
C            0.63488240523962       -1.05616680099864       -0.38195283037306
N           -0.61642082059003       -1.31963332204787       -0.55711748319297
C           -1.74277995523995       -0.70489162210687       -0.33442600940350
N           -2.90039858140365       -1.29708909718070       -0.57646038684079
C           -3.82572987118160       -0.54993855177141        0.08449099108715
N           -5.11219825099524       -0.90021147039653        0.07359206598816
N           -3.37633185368211        0.53489556456599        0.71268436768149
C           -2.06397743083597        0.59484980747527        0.39346680532693
C           -1.40344123142856        1.78609938838387        0.44407206430501
C           -0.14576860895276        2.16312846346315       -0.12752436353568
N           -0.06133445890074        3.44380947625592       -0.56237930336725
N            0.97112649344414        1.50078693864928       -0.19024119233978
C            1.36752660239153        0.26086249549852       -0.15718299487288
H            3.68425917922374       -3.32060438229153        0.00978556456241
H            4.67279924675409       -1.92438488762985        0.36502650992963
H           -5.76362287786543       -0.40070907343174        0.65121390679235
H           -5.37251732497335       -1.75389704938176       -0.38612460912693
H           -1.99992360477862        2.60794140763716        0.82310880589862
H            0.82916639562898        3.78251709530551       -0.88346579853391
H           -0.82012933720113        4.08664574299623       -0.42940377705907
