29
 energy: -55.169609852289 gnorm: 0.000866632577 xtb: 6.6.1 (8d0f1dd)
N           -2.76017943770393       -2.86251383698374        0.60082393593305
C           -1.92978832762819       -2.10681285568649        0.35101950792949
C           -0.85356311214020       -1.25888592539189        0.01613769733703
C            0.29820002987511       -1.97618939837907       -0.46588121990795
N            0.05617260165672       -3.15973835166804       -1.08847650551905
N            1.55895026057541       -1.71755111897410       -0.26413091736238
C            2.32275535286815       -0.68646538202551       -0.06810441082588
C            3.63540552899414       -0.79016788755653        0.38326608830765
C            4.21809858446159        0.48316565020369        0.38088557455447
N            5.47796933061222        0.77523875379882        0.73982790559838
C            3.26133436118608        1.43635432822214       -0.05715643546449
C            2.06848340770518        0.79496663726277       -0.32023477489548
N            0.98129677894821        1.45972574893850       -0.62563868941395
C           -0.28864902542078        1.25799765109079       -0.52059752408245
N           -1.11016216975223        2.29649653141377       -0.77057119479767
C           -2.30171928514313        2.00165885159065       -0.26102411183439
N           -3.32910485004734        2.85491911565282       -0.30628137816401
C           -2.34693952434123        0.68802658562495        0.31339908228669
C           -3.47916631415062        0.19126857184130        0.94798998017912
N           -4.46041281994987       -0.09507878696659        1.47832101030073
C           -1.09524575156003        0.11142901841366        0.05188762980425
H           -0.86621329235219       -3.56132843428848       -1.06483432818622
H            0.84138706402063       -3.76432251231603       -1.26138365114181
H            4.12394932785581       -1.70750317401011        0.64971499264868
H            6.10810653200649        0.04674822105463        1.02409049969845
H            5.82122599127065        1.71604641923149        0.66625266122248
H            3.42335967515589        2.49362930971751       -0.13663933384936
H           -3.19590382485528        3.75433591538460       -0.73273191577265
H           -4.19595986314561        2.62613013120220        0.14797649191668
