27
 energy: -46.140737693838 gnorm: 0.000558546209 xtb: 6.6.1 (8d0f1dd)
N           -4.44295143935857        0.91394783657323       -0.09413147218527
C           -3.39901695565761        0.06754810466088        0.03353040609740
N           -3.61681667143498       -1.24539296882209        0.23405965041895
C           -2.41054232883671       -1.80320825669249        0.30032728801112
C           -1.34906032368116       -0.88459993749238        0.17700076054856
C           -0.02722942690053       -1.32018470974112        0.07462582799646
C            1.16604159876414       -0.65366392993632       -0.08289031148566
C            2.42793451677985       -1.34128188238274       -0.13048519976585
N            2.62405428758213       -2.67232533823017       -0.16901694746414
N            3.47904347608551       -0.51599102699248       -0.07597856973377
C            2.97387351252610        0.72465519217945        0.02193196897020
N            3.80247377080153        1.78644186701673        0.02579773738516
C            1.54658824222415        0.74964851145447        0.00958055603067
C            0.81684910709834        1.91229551079533        0.19823581501276
N           -0.40397359366646        2.25835188097719       -0.11405254218150
C           -1.53310801732552        1.65490750918300       -0.34703963986539
C           -2.00814473250189        0.38964388440704       -0.01735570086981
H           -5.35332495992134        0.54580024980393        0.11955162968796
H           -4.29934751320852        1.90564116461550       -0.04174267784017
H           -2.31906466399078       -2.86903990138350        0.42192078069412
H            0.05918682889299       -2.40173324003948        0.13668612272854
H            1.87013451836981       -3.28699910013749       -0.41699127094722
H            3.56880274025890       -2.99031414710298       -0.29595652216253
H            4.78235727236542        1.59826456627918        0.14846126055487
H            3.44913605751795        2.69062914484921        0.28487853935877
H            1.38202556804395        2.76708573496486        0.57620199284301
H           -2.26041002022709        2.32604643409373       -0.80739508063759
