25
 energy: -38.698120869705 gnorm: 0.000797526987 xtb: 6.6.1 (8d0f1dd)
N            1.69494539294248        2.41460095817815        1.09265329253908
C            1.01753552197729        1.53714559794886        0.32045865509439
N           -0.08740685038552        1.99225284135067       -0.20069016408721
C           -1.24107778204126        1.55688779418349       -0.59246670101305
C           -1.94772943688610        0.41078896778510       -0.23120303432327
C           -3.34862602712884        0.33580535174518       -0.32247404798158
C           -3.76804201755154       -0.92407553129049        0.08850781407500
C           -2.64576259254593       -1.68163224281910        0.38479696309561
C           -1.48227041106780       -0.90025594575903        0.20756328119420
C           -0.22179276422353       -1.48985613438183        0.21988978501469
C            1.07014768306376       -1.03259400971839        0.02219414850351
C            2.16247804291455       -1.93934424668340       -0.09558458014796
C            3.33379708153766       -1.23281763770566       -0.20265279035224
C            3.03567919845194        0.13666765254059       -0.08380199425192
C            1.66168245419003        0.29433066537456        0.03353682709074
H            2.59811733526621        2.17203642494212        1.45683661689301
H            1.31190269942803        3.32840578061275        1.25969311452783
H           -1.78457448211331        2.28268026134475       -1.19698170647962
H           -3.98565193456032        1.14704254317627       -0.62687758066657
H           -4.78807421671048       -1.25951283786255        0.14312961130542
H           -2.64440385280272       -2.71396589479836        0.68602178535935
H           -0.26709542703370       -2.56585206366958        0.37242899024088
H            2.05808112307199       -3.00877335571826       -0.12308122151363
H            4.31888075004383       -1.64312291247132       -0.33243866389062
H            3.75766450686346        0.93391015879554       -0.13073935282600
