27
 energy: -42.126314511695 gnorm: 0.000735250556 xtb: 6.6.1 (8d0f1dd)
N            2.48134659349267        2.46586302611657        0.39629684459010
C            1.52113595875392        1.53570088111767        0.14531195861541
C            0.23434739271436        2.08302449099493        0.04535915543239
C           -1.05258325671223        1.59906573208272       -0.09244404216892
C           -1.64617190619263        0.35383785416394       -0.01632225767427
C           -3.06184949979221        0.18117379818911       -0.06689454304763
N           -4.01673092845651        1.13478812703483       -0.22599238249616
N           -3.43297887290161       -1.09626006788813        0.13780812415267
C           -2.31186895670792       -1.78604473552230        0.30939041201588
C           -1.14565481521383       -0.99667908513656        0.21967166852519
C            0.10999204647279       -1.56869756846122        0.25765458476577
C            1.40108422989525       -1.09765838788103        0.06658504490869
C            2.44467367989440       -2.04758503535813       -0.09783515631912
C            3.62299829080009       -1.39403391897341       -0.37455709523425
C            3.37130983259996       -0.02067507853201       -0.32893366071236
C            2.01509144350740        0.21292565598537       -0.05404565083489
H            3.42668067781424        2.18531594670192        0.57491490486006
H            2.23056002871358        3.42878647406244        0.53388809545449
H            0.26201918546963        3.16957155481769        0.08703435456338
H           -1.77623023639050        2.40058800246989       -0.21915276295980
H           -4.94662213527657        0.78049954715787       -0.37677242936038
H           -3.77767402301238        1.99190209298849       -0.69366933751361
H           -2.35123284800652       -2.84785907283829        0.47774325737552
H            0.07158489881481       -2.64739670516963        0.39055722025252
H            2.30458220916990       -3.11253786437310       -0.04896682471979
H            4.57433688068541       -1.84705804679598       -0.58728021948458
H            4.11854111126401        0.72355738984663       -0.54693144728648
