28
 energy: -50.663810204129 gnorm: 0.000795653005 xtb: 6.6.1 (8d0f1dd)
N            4.50966114241801       -1.19855771830218       -1.44233339115916
C            3.63149919444113       -0.62162547386314       -0.97017948365915
C            2.61845424202621        0.13924872070367       -0.40280667142171
C            2.74576106523694        1.50379478095065       -0.00291031938666
N            3.84221169383627        2.26078966865460       -0.15760465471609
N            1.63171658829190        1.98271696999186        0.55163526298619
C            0.70197138221164        1.00134330672690        0.50436263031969
C           -0.61407770009838        1.33110913731455        0.74607886642116
C           -1.80961473474156        0.69999763385776        0.39645902313419
C           -3.00956331155237        1.37385897243374        0.31499716036079
C           -3.95886553898976        0.57554544338691       -0.39045994157893
N           -5.21199688982906        0.97504420363979       -0.68868524434918
C           -3.36659625134407       -0.63076305852972       -0.73833714494001
C           -2.06987998807556       -0.66597351897254       -0.19753977547610
N           -1.40835996682415       -1.77239429741547       -0.08577320433310
C           -0.19811521633854       -2.06761691431716        0.37642903628192
N           -0.11753545353759       -3.24774581122031        1.04851115359458
N            0.94660284773649       -1.49708918141257        0.09847427097130
C            1.32847816333959       -0.25170982707995       -0.00896433333521
H            3.85253115243924        3.18616223903942        0.23135024692625
H            4.67682857313698        1.86410909203969       -0.55060746870837
H           -0.73213358175803        2.35825369470921        1.07522476777449
H           -3.19196598619457        2.37645399073314        0.65668135589367
H           -5.58531661991717        1.80760406711190       -0.26943494800051
H           -5.84503991604926        0.33786834326166       -1.13788015659466
H           -3.83731018070027       -1.45210299472823       -1.24176020369771
H            0.79712512694689       -3.65214652521358        1.15705799330430
H           -0.91176132241275       -3.86292997510375        1.00691034538778
