32
 energy: -52.743245650499 gnorm: 0.000880997280 xtb: 6.6.1 (8d0f1dd)
N            3.26629105834354       -2.22013831645301        0.81054059889650
C            2.87871203855621       -0.92337552017931        0.43743567015968
C            3.76041032895421        0.13978653125452        0.30450084146903
C            3.04088615799013        1.25367328529214       -0.11055832544681
C            1.68381083146609        0.92292057617135       -0.19081910236052
C            0.69626109435220        1.90650490188602       -0.46871629497344
N            1.03383876256988        2.90768336670124       -1.31825215948054
N           -0.44052708061478        2.07140672506169        0.15790391575245
C           -1.38176020794672        1.28943666814493        0.61176448694885
N           -2.25235467219776        1.87548354622649        1.48102580474096
C           -1.72148843235186        0.01524248492898        0.09838311132619
C           -3.04124738881633       -0.41336973207573       -0.13647249037104
N           -4.21575988695997        0.25976370591469        0.15638098055938
N           -3.08171688145410       -1.61986327191918       -0.72501579995717
C           -1.81861715644997       -2.02553254346935       -0.82459966547910
C           -0.88813631839005       -1.07900907584121       -0.35152948186675
C            0.48592689382705       -1.36905447368852       -0.14122741414101
N            0.80486251938962       -2.68956060519297       -0.17140573171506
C            1.55708846027414       -0.48507765054938        0.11884540166161
H            4.23573517109799       -2.23670597642715        1.10317956303748
H            2.67092528171202       -2.62132868324526        1.52578756173490
H            4.81818036419191        0.10250601372807        0.49672608415327
H            3.45713413075935        2.23721024225908       -0.24669258448677
H            0.44703502448853        3.72261051916673       -1.36196081786258
H            1.97425191829354        2.95861777683765       -1.66564949075885
H           -1.97026675421426        2.74235077896922        1.90614739027348
H           -2.89540318946237        1.28254154473068        1.97699324599531
H           -4.99650537994366       -0.13796958047094       -0.34790732035971
H           -4.15530895168050        1.26476629072886        0.06101827513153
H           -1.62796954723107       -2.97851145220056       -1.28976578322925
H            0.09212234971271       -3.34307509337961       -0.44247925338919
H            1.77100789743377       -2.94201534880984       -0.31329598536296
