36
 energy: -61.219906482926 gnorm: 0.000432690219 xtb: 6.6.1 (8d0f1dd)
N           -6.09303500546754       -1.35210824138038       -0.17878553775193
C           -5.01117604261780       -0.95702301429350       -0.13648611267284
C           -3.70608011332054       -0.48200073554823       -0.08109342279465
C           -3.28773003916440        0.83394980172437       -0.37879542472784
N           -4.15005592223514        1.81994735991408       -0.73106579737762
C           -1.88541336577920        0.93689635975803       -0.16607711150673
C           -1.25746223689514        2.17381702573115       -0.20413236582684
C           -0.00342811289010        2.65196639444735        0.11470684319722
C            1.26263468881151        2.10752768850562        0.36472122399967
N            2.19379148201835        3.05232994505532        0.76043508354514
C            1.78767585086078        0.81259957548600        0.14336826657848
C            3.17487446275268        0.59148271549601       -0.02435767531205
N            4.18817319824367        1.51178295442944       -0.12662024408578
C            3.42357335013053       -0.79934034574225       -0.10891110263905
C            4.66192336856446       -1.38847189385261       -0.33230933201350
N            5.68765228285924       -1.87199411349637       -0.53919848370157
C            2.19618862485730       -1.46577172783894        0.01481608072028
N            2.08278949494916       -2.82540263524935        0.02115702470388
C            1.15223294597710       -0.50007168150557        0.14444026173393
C           -0.15230976229584       -0.94947445219414        0.28595954253203
C           -1.41578243944775       -0.39281870923105        0.19811049706337
C           -2.56889047924423       -1.22524699095262        0.28994941835149
N           -2.61005821982969       -2.54815817238365        0.60676508162440
H           -3.79802258099079        2.66040175006611       -1.15466396764118
H           -5.09021077261127        1.54951110931405       -0.96714314606619
H           -1.94549020060861        2.98180688556078       -0.43753878886679
H            0.01587405148922        3.73762949016121        0.18229096056658
H            1.82186939480252        3.94196781904402        1.05401754506320
H            2.97005086361573        2.71800819048711        1.30862262392707
H            3.93518171000742        2.41366274595161       -0.50339165125927
H            5.05228289346456        1.13222185906583       -0.48804108313114
H            2.90458918587150       -3.33402553618653       -0.26496928167583
H            1.20650462500055       -3.23847488098365       -0.25080362113397
H           -0.19407900138992       -2.02522206504761        0.43040533560857
H           -3.52339509669603       -2.94267260717998        0.76551602687912
H           -1.86335238909205       -2.93574458993131        1.15847022539083
