25
 energy: -47.483987370477 gnorm: 0.000724762289 xtb: 6.6.1 (8d0f1dd)
N           -3.54158469440237       -2.23626437927708        1.50715349855168
C           -2.90223505288513       -1.41945051217440        1.00725400627907
C           -2.19676126691568       -0.39338852178993        0.39332486902919
C           -2.78306795420525        0.67630166517428       -0.33645003116110
N           -4.08781246433575        0.84563368218372       -0.55742650837808
N           -1.88054102846910        1.55497751041750       -0.81789482300977
C           -0.69021504665947        1.17452001800651       -0.36627618350786
N            0.30546072498264        1.97797923439037       -0.25674350591411
C            1.56183966693726        2.01020994064438        0.09210133960372
N            1.96715757291784        3.19514195124899        0.61373547961402
C            2.58288656599831        1.04231130362386       -0.13714786114509
C            2.51424459195950       -0.31920741162376       -0.12056955002182
N            3.64848999304043       -1.03367862584328       -0.34382427615956
C            3.30652956163890       -2.30800058963130       -0.40157897624044
C            1.93549066460092       -2.52604590261106       -0.20517070605311
C            1.36503044289207       -1.27971684359966        0.03591244578912
N            0.08519197283690       -1.15015412339356        0.30240039354699
C           -0.80000347174992       -0.22587430075832        0.24896663824763
H           -4.38823497002483        1.61155670785645       -1.13405220234090
H           -4.75592707480330        0.20188293688298       -0.17137163435008
H            2.91311767096204        3.32866328855515        0.92003246949052
H            1.28301194092496        3.91438978143388        0.76913903726487
H            3.58175214076900        1.43692648082485       -0.27613784473546
H            4.05826866087967       -3.05991098456266       -0.56893236234024
H            1.42079287059954       -3.46545459659477       -0.19993848097223
