31
 energy: -49.807641967698 gnorm: 0.000590164042 xtb: 6.6.1 (8d0f1dd)
N            5.08728916102047       -0.72548158712731        0.48030324560825
C            3.99034799546283       -0.44320579499841        0.27011080789333
C            2.65806210930848       -0.11309887579176        0.04382512964439
C            2.12369072888916        1.17823790144553       -0.02330239290770
N            2.87840719436781        2.31220056925244        0.02801620817901
C            0.70365451011383        1.08667415716102       -0.17760173439321
C           -0.02157310067622        2.24350848880791       -0.39010613838914
C           -1.36869585502450        2.59311211782343       -0.42321180508772
C           -2.52767698956615        1.90866381351240       -0.12328978784038
C           -2.84417081957863        0.58162940822908        0.15662816670876
C           -4.16008543384992        0.26312808731809        0.58378844153775
C           -4.28526638139286       -1.10169308825428        0.71238097570131
C           -3.07854130612284       -1.68101775495660        0.31419813461902
C           -2.15405921490685       -0.67599943813837       -0.01574846967483
C           -0.84151150976856       -1.02210356637273       -0.44172490772417
N           -0.73369328882661       -2.25527614694615       -0.99652727917966
C            0.37915212121863       -0.34393813521483       -0.22686810994573
C            1.59620244870096       -1.04091336170569       -0.10351428314367
N            1.81005227225503       -2.40672012103551       -0.07125978366418
H            3.83646555328180        2.19628133054089        0.31676012734181
H            2.43982013232630        3.17415238667063        0.30417097185869
H            0.61873378848786        3.11135550270791       -0.52233928193017
H           -1.52723928475749        3.64735617161920       -0.62493957410244
H           -3.39827725012717        2.55573865928241       -0.05645139393292
H           -4.92384486361767        0.99339596453791        0.78239345601677
H           -5.15302367074310       -1.63833296658830        1.05052691134960
H           -2.87968190854724       -2.73881078735607        0.35105364607926
H           -1.57284656302034       -2.74686254183009       -1.24694273716502
H            0.13097287811433       -2.52603218137305       -1.43346836628280
H            1.08476401545081       -2.95053007605147        0.37554221171560
H            2.73722244182773       -2.65160540046810        0.25179275050993
