26
 energy: -42.404303967629 gnorm: 0.000708558352 xtb: 6.6.1 (8d0f1dd)
N            4.51503133463546       -0.88874224980401        0.12848863385863
C            3.21493243413159       -0.51260166230384        0.06724813257426
C            2.70798112906703        0.78736642926341        0.29303094549610
C            1.34587978718821        0.72442871726984        0.04555322345120
N            0.60711928237969        1.81982577368356       -0.05445546613330
C           -0.65024195586355        2.10662176417721       -0.09736942187643
N           -0.89771354304994        3.43798985560613       -0.35357506770252
C           -1.83267961530133        1.36003834132999        0.23861411739573
C           -2.15003215428289        0.03982513880627        0.21246287601507
C           -3.49812640075653       -0.38088037340052        0.47317028100307
C           -3.61794430202172       -1.70902776787751        0.18221654634795
C           -2.35857716612479       -2.20222743499267       -0.22853674465246
C           -1.41906598871298       -1.18364242570212       -0.20126414469227
C           -0.06312338743635       -1.44246079032214       -0.42539290500029
C            1.08399641261532       -0.70328142303974       -0.27312850896674
N            2.26577316282574       -1.37157235256037       -0.30337325546199
H            4.70139951890771       -1.87502432338220        0.07000864322789
H            5.15857821935924       -0.31975403620867        0.64944262198471
H            3.27117692828773        1.65644774395516        0.56889774107162
H           -1.80562543980220        3.71283994078707       -0.68597582410807
H           -0.10909685549804        3.96628686271705       -0.68883691592810
H           -2.65398404798943        2.01199405590008        0.52428588962400
H           -4.27894430372337        0.28083430588210        0.80066158507058
H           -4.51532176649433       -2.29763696289184        0.25460370188270
H           -2.15245125287468       -3.22227720686600       -0.49704694411662
H            0.14829669533415       -2.48402867492608       -0.64705163406475
