22
 energy: -39.514028634547 gnorm: 0.000688884002 xtb: 6.6.1 (8d0f1dd)
N            0.07750185521948       -3.36245109872997        0.47774723120097
C            0.03533002991876       -2.06503985985895        0.08091721816233
C           -1.25366203169449       -1.55634718475600       -0.25364468091630
C           -1.75109353562381       -0.28473432836701       -0.24825169364755
N           -3.07639971519158       -0.10988055696327       -0.53127942671086
C           -3.32552755038283        1.14462981988821       -0.23476214946720
N           -2.28505890887260        1.86997243578968        0.21174048326359
C           -1.24293878758184        1.03719717722229        0.20479529607457
C            0.02260102476492        1.54278053226284        0.50657539954821
C            1.27846847717469        1.01544787618180        0.33348495894059
N            2.33992158997505        1.83855888660321        0.39118655432805
C            3.38010616904564        1.18418767397143       -0.12840591934412
C            3.08280263343392       -0.12175048152017       -0.50013186149332
C            1.74103772548680       -0.33445196812061       -0.15046022963981
N            1.20390481535065       -1.51963730332876       -0.10116368323596
H           -0.75830076432501       -3.91094318693799        0.55666539009562
H            0.97224700203379       -3.78668359988458        0.64640779243259
H           -1.98721945697898       -2.30730816698982       -0.52622998628879
H           -4.30462653648546        1.57572612577897       -0.33977271128412
H            0.01252107426490        2.59326848534904        0.77532010916786
H            4.33212112487616        1.67922867279874       -0.21169844427143
H            3.75241328419195       -0.85056031778907       -0.91055040911497
