24
 energy: -47.763257665657 gnorm: 0.000725242678 xtb: 6.6.1 (8d0f1dd)
N            4.30050026017648       -1.59691902323015        0.61929446483718
C            3.41365846276242       -0.90435408039121        0.38045036268943
C            2.37755279135633       -0.01991710451302        0.09730905989386
C            2.52176378407331        1.40699308474112       -0.02296333205977
N            3.65715783554883        2.08249487402447        0.13208937368517
N            1.37244221613820        2.01479767583311       -0.31061853289114
C            0.41871340116417        1.07829740417340       -0.39205446414040
N           -0.80631201572608        1.43063328450232       -0.58608790267102
C           -1.97689115559502        0.92400523192888       -0.34481977785399
N           -3.10174226175445        1.57135880608563       -0.62460297133355
C           -4.05865727325007        0.93444773431762        0.07886439655804
N           -3.69973728404750       -0.11580341691519        0.77909182213374
C           -2.38433456562554       -0.30220855769882        0.46089162986619
C           -1.84567392533318       -1.54364241336546        0.52176010131978
C           -0.63992007716087       -2.04868641050397       -0.09603807833992
N           -0.71090501733313       -3.32613829674195       -0.52783603739321
N            0.52581629879517       -1.49563423571858       -0.19610062627209
C            1.03794976631576       -0.29387571457243       -0.16435972593149
H            4.51350388424647        1.60447064465792        0.35427909096209
H            3.64445501127654        3.08104326611208        0.01249425784147
H           -5.07379217901268        1.28954065075762        0.07032124874349
H           -2.49082686084933       -2.29951450303262        0.95519550146818
H            0.11132732948665       -3.74981223671861       -0.92320073914997
H           -1.54064586585585       -3.87530545883129       -0.39717697236070
