28
 energy: -45.868495409276 gnorm: 0.000875998929 xtb: 6.6.1 (8d0f1dd)
N            1.99624530177947       -2.27718331170565       -1.20620284216830
C            1.35455222724710       -1.39593700096854       -0.40639042474112
N            0.18573910561405       -1.78135174050802        0.01256158821009
C           -0.94372634357995       -1.27269903911522        0.42600891349123
N           -1.72213996613102       -2.13427353630929        1.14139239591672
C           -1.51654122599081       -0.03728476205604        0.04623227522801
C           -2.89371077765005        0.22355727226718       -0.05576166015609
N           -3.93967049977554       -0.66056509649564        0.09400657030254
N           -3.15198795555016        1.52361964431040       -0.32602276915774
C           -1.98059113600176        2.13284256061742       -0.36385457395985
C           -0.88505852712897        1.25459971553122       -0.16654709872840
C            0.40996014257229        1.73062832609319       -0.03047686181238
C            1.64477907613480        1.12451350181778        0.14745650323547
C            2.81466694761800        1.89890117813172        0.39453381652006
C            3.90974194455077        1.07241352799342        0.43193395802749
C            3.48053134165617       -0.23581082314393        0.15376125556941
C            2.09810693506786       -0.24097297020236       -0.00465766670510
H            2.93838395861270       -2.09542367036303       -1.50011756700297
H            1.54815463321749       -3.14094038102723       -1.45610705041789
H           -2.50258499762823       -1.75357015127312        1.64985946682860
H           -1.27310448619104       -2.95697258181269        1.50889940297046
H           -3.75651927851418       -1.60462634366938       -0.21486033668544
H           -4.80734576748608       -0.27898807080851       -0.25614083820748
H           -1.92042252218643        3.19129893966747       -0.54386848034106
H            0.46304447459281        2.81641940312570       -0.04685747943280
H            2.81194706114622        2.96385234199601        0.54143636191487
H            4.92645655693994        1.36404560878745        0.62442695573744
H            4.12065329426454       -1.10174531708012        0.12938609636387
