33
 energy: -63.653457305911 gnorm: 0.000693525268 xtb: 6.6.1 (8d0f1dd)
N           -1.75716501034038       -3.26877943303703       -1.32947025480601
C           -1.36874696331447       -2.29337593637324       -0.86645195623659
C           -0.98722576612055       -0.99888137662466       -0.42371649274691
C           -2.09862453089720       -0.20541719306868       -0.08256201544367
C           -3.34477556389737       -0.72389734931324        0.21469911298656
C           -4.12788086024736        0.28460917449087        0.84362336801167
N           -5.36794697155577        0.09330594648455        1.32095329263820
C           -3.39656665936381        1.47449426738115        0.87475597530534
C           -2.17087411380473        1.25569629183416        0.23898825528387
N           -1.43109955122404        2.22397642435286       -0.20916027783890
C           -0.26107695918453        2.39339336861655       -0.75577948978243
N           -0.17791507439367        3.43092260528782       -1.62305518854178
C            0.96223800116384        1.73445501641826       -0.39200941787639
C            2.08302189780384        2.58600894311937       -0.50426617038532
N            2.93083934903860        3.34153718308572       -0.68265776701450
C            1.19489772037523        0.41679568900162       -0.00136301563067
C            2.48098712482269       -0.01370713376625        0.40507428948906
C            3.57232954063488        0.74474874417127        0.83158293836553
N            4.51573755131207        1.24974431862299        1.25383261759236
C            2.53288657128127       -1.42421989835514        0.36735076969268
N            3.58872616814317       -2.18675145790508        0.67546694144927
C            1.26075841680796       -1.89628275694607       -0.04797516109724
C            1.01141144273246       -3.26870420621853       -0.09408338937039
N            0.96970697710315       -4.41853519288704       -0.07070161021560
C            0.38221815388961       -0.79887977056146       -0.21025452925248
H           -3.65654572868334       -1.74189238053259        0.07430913918338
H           -5.85880809090278        0.83930333938003        1.77980262019646
H           -5.82823680548810       -0.79029614931437        1.19488537437178
H           -3.73610785863644        2.42170462514177        1.24430888448456
H            0.72091913275926        3.79013706321515       -1.89852578097314
H           -0.98852275708747        4.01669075828683       -1.73142684122660
H            3.52015810255823       -3.18846275047306        0.61438042221651
H            4.43955621730950       -1.76035946292027        1.00049642947168
