25
 energy: -48.263972649016 gnorm: 0.000941371900 xtb: 6.6.1 (8d0f1dd)
N            4.48179183645796       -0.23381821429385        0.16867675107834
C            3.33629544110180       -0.26911485972119        0.10191157048949
C            1.91658829520934       -0.36094901007578        0.02701584717829
C            1.46515776318616       -1.70223295159493       -0.08425845850640
N            2.43240466112605       -2.64628902813833       -0.24787355779534
C            0.16841864367826       -2.23722630002611        0.00033290019939
C           -1.11671231187581       -1.76087874908680        0.08624190818006
N           -2.10285720652755       -2.69356032714061        0.19438615806011
C           -3.23095842508475       -2.01465087582361        0.18825952158594
N           -3.11018880006410       -0.68409296229511        0.06697313728678
C           -1.79770758873785       -0.45278008394339        0.01169229972637
C           -1.34318060998388        0.86757011696790       -0.10552340432058
C           -2.39902502460821        1.81827128327760       -0.24124253966544
N           -3.25849353294579        2.56286034333580       -0.36955054691219
C           -0.07800435553852        1.43272189852833       -0.05818372782632
N           -0.04167781149621        2.77622858496007       -0.07572394788014
C            1.22312375997632        3.15628365283386        0.06339708887842
C            2.09084953131693        2.07240476752924        0.15746199926032
C            1.31392096245119        0.90473696420537        0.06667817243863
H            2.18338335197797       -3.61858887928447       -0.27477451219134
H            3.40606418174796       -2.39868381851952       -0.28282834073868
H            0.16015996615977       -3.32419493183185        0.00665561734314
H           -4.19152471308901       -2.48733590714220        0.27209537243932
H            1.47513568097972        4.20053643971548        0.09203957625615
H            3.15595782458228        2.12615213146416        0.26546607093575
