33
 energy: -56.467092264168 gnorm: 0.000518472985 xtb: 6.6.1 (8d0f1dd)
N           -3.95288544660149        1.91077335297143       -0.80546792655174
C           -3.16529905022927        0.87573962965967       -0.40400406462196
N           -3.71868676962414       -0.22239820664625        0.11524270332887
C           -2.69953449053108       -1.01085956283272        0.50114493944934
N           -2.99970947778812       -2.24594358692916        1.05089998755889
C           -1.42631493027454       -0.45252442605643        0.23677763058501
C           -0.23179635161764       -1.20477068022882        0.18339035668126
N           -0.34586190526512       -2.53428374805935        0.44962565740383
C            1.07497830394490       -0.75469084157923       -0.12006107100998
C            2.15025767254551       -1.62035402380005       -0.45036311514678
N            2.09423992373540       -2.97502127322175       -0.78754413158428
N            3.33947382231729       -1.01363783229584       -0.43177875013124
C            3.10702264624065        0.25418108344659       -0.05471876954887
N            4.15831298218487        1.12901667538603        0.09781287189586
C            1.73240596981696        0.51717746941000        0.11455867972325
C            1.21153511865898        1.79464800365872        0.41481855164570
N            2.01459898471625        2.65007222239794        1.12935350071050
N            0.16271982056394        2.37894001835513       -0.11029909087254
C           -0.97801839382300        1.97879782300239       -0.59653709923755
C           -1.74068837284549        0.85604330419692       -0.32076332719238
H           -4.92712065035603        1.68003334919785       -0.91136539802828
H           -3.57148970654186        2.56036165513614       -1.47253762847096
H           -3.99844299636971       -2.33111766702477        1.19429062348598
H           -2.47120332720556       -2.46661831292964        1.88535640918203
H           -1.24171077627489       -2.97709359027777        0.32628249553006
H            0.48885041891866       -3.09484784205071        0.37844452689813
H            3.02118663902812       -3.28916578053140       -1.05007042895894
H            1.42450708286374       -3.17717479618160       -1.52122941719195
H            4.99870576485450        0.79752532731566       -0.35358643706523
H            3.93745322034522        2.09575890146972       -0.09652683843420
H            2.67859956001536        2.24024009922517        1.76439133152419
H            1.58688841288811        3.51987478184362        1.40423229622377
H           -1.46326159499019        2.75869792627285       -1.18404762627968
