33
 energy: -63.647397027415 gnorm: 0.000937993606 xtb: 6.6.1 (8d0f1dd)
N            1.07874373854420       -4.14312221238617       -0.58332570880549
C            0.89072270140261       -3.02744476609986       -0.39813965454245
C            0.62505449718425       -1.63907708001688       -0.22052091329613
C           -0.73977958121853       -1.29530242803665       -0.29104813433730
C           -1.70469605073584       -2.27489513838185       -0.47449006023740
C           -2.98040838788053       -1.75282305576290       -0.17166557572340
N           -4.14415184982521       -2.41346075307051       -0.23491346940166
C           -2.82059775843975       -0.40354035374552        0.20979225079459
C           -3.93875824524033        0.37338858285575        0.51409055480468
N           -4.95715689045762        0.86372075203181        0.73086809716960
C           -1.44938970798460       -0.04289366897419        0.06520710585922
C           -1.04568750569130        1.27784158659702        0.13401873715369
C           -1.98578707454420        2.18919445307774        0.68263891370582
N           -2.62798007759376        2.99009536042249        1.19770537750129
C            0.10681735284389        1.99310394951411       -0.36627628020360
N           -0.19448251773434        3.21482355110652       -0.89045920536448
C            1.45328049906765        1.64112102688459       -0.32007988979725
C            2.34947359094509        2.66064077369702       -0.72654269706485
N            3.07459045647780        3.48384097216314       -1.06905911496280
C            2.14289177180553        0.48839698133790        0.14134750579990
C            3.47792674397905        0.50408069185360        0.48896899261930
C            3.86056982213603       -0.84866503781566        0.70178896438534
N            5.05497597901945       -1.29407827321929        1.10507411967688
N            2.85295269987426       -1.68754843171268        0.44763027691349
C            1.77640925614841       -0.94435260360475        0.13041815216022
H           -1.51231650922338       -3.29509228305503       -0.74743620371100
H           -4.17113843196814       -3.37016147350580       -0.53857987747118
H           -4.99603399765379       -1.95154100268978        0.03553888227514
H           -1.12727761515840        3.58185412909079       -0.80228037262242
H            0.54917139730768        3.86597125103766       -1.08427276106518
H            4.11406753413540        1.36090343133532        0.59353628761802
H            5.81952109753980       -0.66138340143971        1.25398478580198
H            5.19319633343729       -2.28598263557902        1.18780505627371
