27
 energy: -46.929883630517 gnorm: 0.000720003649 xtb: 6.6.1 (8d0f1dd)
N            2.65080674688940        3.30515114791761       -0.00849657811644
C            2.39815427711265        2.18197168144774       -0.01423082943604
C            2.18221088490515        0.80953366390729       -0.01381105731013
C            3.21144469212350       -0.17269928648790       -0.00869461926621
N            4.53257041533471        0.06781686274685       -0.03798290367821
N            2.71583255874171       -1.41012684714042        0.00088014041610
C            1.36715835763921       -1.32552319300074       -0.00092610197314
C            0.68041801841284       -2.52880169978266        0.00350896062346
C           -0.66053682773460       -2.89110778275083        0.00013498057845
C           -1.85488408151923       -2.19323602157332       -0.00804033780571
C           -2.21326917174361       -0.84633988016689       -0.01188810379230
C           -3.54833346026692       -0.47041673200121       -0.01941248589913
C           -3.66297775667318        0.93995781823295       -0.01407825800532
N           -4.82590474998895        1.62689296206388        0.01655928201300
C           -2.37905600868088        1.48003474118957       -0.00113067757467
C           -1.43178538001299        0.44304603132485       -0.00310967463319
N           -0.17267370545613        0.76168015628816       -0.00369249483518
C            0.95968445237777        0.10051273222899       -0.00772541476593
H            4.87249193981436        1.00863280528543        0.05206174821822
H            5.16596634038185       -0.70636359222580        0.04956680884641
H            1.37086993072519       -3.36574158968549        0.00777001527137
H           -0.80091568903978       -3.96720467566283        0.00368259323578
H           -2.72771892696518       -2.84146790640939       -0.01004465282858
H           -4.38325571194486       -1.14935229583975       -0.02780290621389
H           -5.69406904055311        1.14426705924183       -0.13241625030968
H           -4.81174679330712        2.62415613920404       -0.10222171492727
H           -2.12126743397195        2.52118108484817        0.00565437456823
