29
 energy: -49.581528384410 gnorm: 0.000789878579 xtb: 6.6.1 (8d0f1dd)
N           -4.27090762546923       -0.68125705702619        0.65425147205098
C           -3.22487131162325        0.04778086806741        0.18892663537948
N           -3.43240407686696        1.26116806170736       -0.32911984665158
C           -2.22783256994450        1.73622964652760       -0.66062105578770
C           -1.17475674379188        0.84726274262572       -0.40165949122282
C            0.18971867909024        1.23828513541705       -0.40437383439656
N            0.45472112653647        2.51177160317070       -0.77565283462621
C            1.31646880446831        0.49474544146110        0.01612303302392
C            2.57659807375879        1.07513602090859        0.34541332462530
N            2.87730426389208        2.42537477396413        0.50207594298974
N            3.53594524082247        0.16540050555840        0.51054880648235
C            2.97274644662178       -1.02147850445991        0.24944972985475
C            1.61071437591736       -0.91836043192036       -0.02391056564316
C            0.78707538737825       -2.03521990579490       -0.34954123662038
N            1.34917481233821       -3.01364812323364       -1.09647753673864
N           -0.40223080017592       -2.29780443419040        0.12143622078300
C           -1.41572661779105       -1.58488350869466        0.52678661977022
C           -1.84181631657889       -0.31997559329904        0.16143742468295
H           -4.16229722575254       -1.67110829916407        0.78474229637200
H           -5.18144971404516       -0.35104166035355        0.38181914607421
H           -2.18502957137761        2.73090980015164       -1.07099196161392
H            1.41498538279968        2.78873588941684       -0.90118289169269
H           -0.27789697911873        3.10217785341453       -1.12188789119574
H            3.82012629937674        2.52198745984931        0.85967155745066
H            2.21084909335157        2.92862434969164        1.07544293494619
H            3.55517920207006       -1.92175452337533        0.34214302691069
H            0.86666576354737       -3.89166727997025       -1.18972383870316
H            2.32931544148661       -2.96372803174963       -1.31172334871595
H           -2.10465620451921       -2.16760347840009        1.13798708501194
