25
 energy: -42.672674542307 gnorm: 0.000616267213 xtb: 6.6.1 (8d0f1dd)
N            4.68116811522650       -1.27636734750158       -0.01958195688416
C            3.44815915324698       -0.72705390949355        0.01045737885766
C            3.15227494396328        0.63719167621029       -0.00090046211280
C            1.76326974326679        0.82574621077303        0.00801128324354
N            1.30165481001656        2.04603148469831        0.00584000282884
C            0.09552468122738        2.57735050873269        0.01012504342731
C           -1.20688541856002        2.11002395271510       -0.00555663364004
C           -1.79571195963554        0.84271592848441       -0.01117021764904
C           -3.17022733596930        0.66382146591905       -0.02619098922106
C           -3.40660490666884       -0.73008952315980       -0.00267986166128
N           -4.60658661186005       -1.34293753835389        0.03369861205494
N           -2.27324871663523       -1.43396359085273        0.02442194934973
C           -1.24897055617671       -0.55924707745955        0.01747200336991
N           -0.05752833601091       -1.07210328186669        0.02733597416519
C            1.15911229646751       -0.57789152808315        0.02087079758643
C            2.23560687221751       -1.45218538596122        0.02015388824865
H            4.78655742083227       -2.26645325083587        0.11236778051319
H            5.48930747583670       -0.69036723962444        0.09185139578854
H            3.86575383939767        1.43949035692888       -0.00980760565216
H            0.16813903219662        3.66597627076571        0.02057925629264
H           -1.94376419302634        2.90865498880437       -0.01094635347616
H           -3.92227309882783        1.43046282026105       -0.04922942052490
H           -5.44256914775227       -0.82363996570318       -0.16401833736217
H           -4.61697157088582       -2.34297286651600       -0.06482128772384
H            2.14514867031289       -2.52204944628158        0.02749620628123
