28
 energy: -50.658588723751 gnorm: 0.000825088694 xtb: 6.6.1 (8d0f1dd)
N            0.06404354314074       -3.36263171647378        1.53784904912108
C            0.06214574871395       -2.30726397717653        1.08399449399748
C            0.04296026014209       -0.98320441894965        0.57985135392026
C            1.30614575395766       -0.45875490275264        0.27956690198063
C            2.45637182426650       -1.23186452579598        0.21891862160218
C            3.47324410652423       -0.49941307865311       -0.43679940564359
N            4.69511545065982       -0.98482481241736       -0.73842019127143
C            2.99271333199202        0.77704818491149       -0.75045690129260
C            1.69752012848530        0.90124685076869       -0.24994242854062
N            1.12932040657808        2.05940542198253       -0.06617610756470
C           -0.06899496630653        2.42411492673347        0.34026790397471
N           -0.11093083293176        3.54582987874669        1.10864369372749
N           -1.24160234616026        1.98061451309414       -0.06692951037672
C           -1.73123064603396        0.80005423165952       -0.26607136528423
N           -2.96178535540336        0.67321103391224       -0.77988695457041
C           -3.35176471052453       -0.58430387017325       -0.53612021705435
N           -4.55819229759480       -1.02242726227824       -0.93316316044438
C           -2.35812967828701       -1.35242569749332        0.12091257916172
C           -1.24798450389446       -0.53404259788044        0.24287579951528
H            2.54297406106929       -2.25537654445413        0.53423128013519
H            4.99672316023062       -1.85458214876195       -0.33633527282109
H            5.38707829927275       -0.37677875427805       -1.13848722193499
H            3.55199998692087        1.57073919499870       -1.20564418169117
H            0.73376003298006        4.08489571582469        1.19209252897909
H           -0.99459630114776        4.02056751916458        1.18052456132744
H           -5.19145106196325       -0.35230855712634       -1.33280694968533
H           -4.91333289938143       -1.89790727233566       -0.59330678327456
H           -2.43930933620468       -2.38820106689671        0.38807297600776
