25
 energy: -47.497410362319 gnorm: 0.000630011458 xtb: 6.6.1 (8d0f1dd)
N            4.39170629783568       -1.57635609477860       -1.32230075455512
C            3.54572436106498       -0.95469282447696       -0.85163088694224
C            2.57332325203131       -0.12820408811756       -0.30061513706627
C            2.75023584715037        1.27140620638835       -0.03905562512394
N            3.85847979138374        1.97060899272767       -0.30403097400234
N            1.67452995642823        1.82914350918536        0.51246417890468
C            0.71678751174030        0.87824898271378        0.58241017907734
C           -0.58756427473374        1.26266257158999        0.78490749630424
C           -1.79727271231643        0.62284979345757        0.48255427077246
C           -2.98874094958912        1.27726021675775        0.27181193933086
C           -3.85165558622946        0.35149450766316       -0.39662934930735
N           -5.08867353870107        0.60804033006890       -0.83171084272168
N           -3.28638156750880       -0.83958137861813       -0.58221485779099
C           -2.07884632832602       -0.79239200805928        0.00727040328575
N           -1.44739056690714       -1.87729267002282        0.28110297804184
C           -0.26667761075356       -2.14917016399770        0.78676813037188
N            0.88788390365216       -1.64538271791860        0.50102496491078
C            1.30090209741287       -0.44557070744931        0.18264771625659
H            4.65291272825687        1.52080424610934       -0.72340135554978
H            3.90388408378605        2.93612418434531       -0.03133737856513
H           -0.68502797044131        2.32511814486150        0.98184399856585
H           -3.22376439130450        2.30098664480017        0.49026760077440
H           -5.54612924118397        1.47462525007465       -0.61412961296510
H           -5.59700217156205       -0.13125131060498       -1.28507445635424
H           -0.23508321028549       -3.05933788620132        1.38251187074561
