28
 energy: -45.846304964875 gnorm: 0.000522737844 xtb: 6.6.1 (8d0f1dd)
N           -2.60625723039952       -2.28862184056218        0.81957756877820
C           -2.49534907324339       -0.98623705094727        0.33655927997062
C           -3.60509096728263       -0.21639131955752       -0.05665845893027
C           -3.15139427192243        0.99621128211127       -0.51624324021189
C           -1.74612566929894        1.05829229467316       -0.35339034453654
C           -1.06430480933228        2.25282882766353       -0.54550325988067
N           -0.03614369631367        2.72964840088357        0.09796184141101
C            1.02803338240799        2.25791244301806        0.65714218598881
C            1.71167712496155        1.07482589317923        0.35932565742358
C            3.11141429088265        0.97170829404811        0.39656336078083
N            3.54685578578564       -0.19724501085488       -0.06237585206082
C            2.45386122537632       -0.92199057324628       -0.34877149884729
N            2.61727477776106       -2.22732992076474       -0.81393355055900
C            1.24577412547294       -0.21946975829432       -0.10514534770155
C           -0.02303231091783       -0.84350141929775        0.01742174475247
N            0.00182721319625       -2.19258972680049        0.02656633262023
C           -1.30716234937497       -0.24442386540553        0.12746266562606
H           -2.00605844453812       -2.49188261257997        1.60876412058147
H           -3.56708301896333       -2.54232539793942        1.00948359430760
H           -4.62851644324023       -0.54234026310148       -0.00094289294627
H           -3.75721265694121        1.81322581264965       -0.86262814276769
H           -1.56091998712933        3.00062771867422       -1.16169868065192
H            1.52876488350467        2.96321352658672        1.31775086444068
H            3.80452709547077        1.74420684720286        0.67600179259148
H            3.60693545375800       -2.42169441309046       -0.91513129506984
H            2.12328317314627       -2.41380265264645       -1.67927524786737
H            0.89266448408879       -2.66440010093294       -0.00277437252671
H           -0.85516110141502       -2.71025874566867       -0.07515107621518
