30
 energy: -49.303558202715 gnorm: 0.000319959458 xtb: 6.6.1 (8d0f1dd)
N            4.20350093176757       -1.51637780161074        0.07005578807385
C            3.23100226159771       -0.57762678080746        0.04310892112403
N            3.58057403572420        0.71524986313019       -0.03700645610635
C            2.43037862120328        1.39931256642666       -0.09530564747118
N            2.47088100706220        2.75494600547532       -0.14804971115792
C            1.27244550184780        0.56176724970124       -0.03897557151481
C            0.00005512088657        1.10400812414708       -0.00009441767102
C           -1.27230856092080        0.56171533963813        0.03881744670441
C           -2.43028556533904        1.39922169446223        0.09501697331523
N           -2.47084200543356        2.75485248165133        0.14760805975145
N           -3.58044998764230        0.71509975004698        0.03680227646670
C           -3.23082910163781       -0.57776976160822       -0.04315880302833
N           -4.20327868990796       -1.51656470020111       -0.06999444414607
C           -1.81329012895194       -0.78178092677831       -0.02617017286247
C           -1.27836567709875       -2.06080970638520       -0.04821343649684
C            0.00013588483337       -2.59680837830937        0.00005492895699
C            1.27860564640176       -2.06075411351722        0.04826666895328
C            1.81348332529978       -0.78169877651989        0.02611016372411
H            5.13666176673855       -1.17722374923817        0.22938139397028
H            3.98449295818825       -2.44772954299986        0.37680832467269
H            1.68067348839323        3.24408782888878       -0.53267608756721
H            3.37889139563433        3.14132222058025       -0.34801974822420
H            0.00003663995724        2.19108106535641       -0.00020500369932
H           -3.37886860420677        3.14122886043079        0.34750877147163
H           -1.68065470319091        3.24408260674842        0.53216123782703
H           -5.13646415978131       -1.17747914802004       -0.22932933284250
H           -3.98423882340869       -2.44794558365241       -0.37663465630246
H           -2.04177168238464       -2.83403163187013       -0.08711249088367
H            0.00014807048806       -3.68290384439207        0.00017149219148
H            2.04205503748079       -2.83392702737369        0.08733182367117
