31
 energy: -48.997719721421 gnorm: 0.000934722611 xtb: 6.6.1 (8d0f1dd)
N            4.40059231983577        1.12716254946910       -0.39049949739409
C            3.39993055988803        0.25664435725118       -0.02114662718074
C            3.60088300018367       -0.96864200422181        0.61290941648327
C            2.36850564988812       -1.58154483815985        0.76817647656505
C            1.33808631463688       -0.74866264150767        0.28003800418219
C            0.02162570308233       -1.22937418456050        0.04816836449975
N           -0.09314915942473       -2.59722074120536        0.04001341711722
C           -1.18172601836973       -0.52679490228277       -0.17309414843648
C           -2.43310565510664       -1.16360911984034       -0.38117646974621
N           -2.65821774110659       -2.48028326400940       -0.76052657425154
C           -3.47549700607830       -0.27328075462221       -0.09900994575670
C           -2.93121905669114        0.94421356183415        0.27272136280896
N           -3.65383537221188        2.07968133792500        0.53740866555192
C           -1.50598974693764        0.86161082790371        0.15660942409385
C           -0.71979595319854        1.99401940954667        0.20985432777804
N            0.40810072601945        2.28505325840066       -0.38906683152777
C            1.48095102427753        1.63663546546348       -0.71568591021696
C            2.00255572219644        0.45153689541401       -0.19468885263067
H            5.27465106438881        1.01084264920870        0.09777402985815
H            4.13544775246223        2.08702814341610       -0.53679142149473
H            4.55083739463831       -1.36760227315342        0.92032145440735
H            2.25016363230944       -2.53791038931199        1.25095130243851
H            0.72997657524261       -3.11879947379612        0.28638079038082
H           -0.97565101325275       -2.99283693210767        0.32316535973810
H           -2.00430944214912       -2.83203277208672       -1.44714257358499
H           -3.61998063942307       -2.64677609063806       -1.02566122818475
H           -4.52403742063854       -0.50421721251163       -0.16549015726441
H           -4.62306789041026        1.93184026551899        0.76861962178665
H           -3.19772902319807        2.79735234797237        1.07716844169354
H           -1.17300449097088        2.88310906106213        0.64902289464326
H            2.13086047011872        2.21356107512921       -1.37491082785653
