27
 energy: -47.717202200907 gnorm: 0.000501318579 xtb: 6.6.1 (8d0f1dd)
N           -3.31951372628693        2.38031518710364       -0.09662402750653
C           -2.64932469497099        1.44435123473921       -0.08986385251650
C           -2.03481346215640        0.19306857083220       -0.03437589779140
C           -2.82924524439358       -0.95875309756908        0.23289001892703
N           -4.14864441815686       -0.93238937162433        0.49707210851692
C           -1.99736368254240       -2.07771758949388        0.18223527740909
C           -0.68392053831420       -1.67889936050890       -0.09568024035232
N            0.19667486592437       -2.60354376404083       -0.40638933962446
C            1.47762837626617       -2.70281847819974       -0.52286603301473
C            2.54958852512289       -1.88767116456741       -0.10621041807755
C            2.66354291822962       -0.54911310900913        0.17264432600964
C            3.93013443289760       -0.00445557073211        0.51534399195176
C            3.85883618881310        1.36943872225907        0.50196452639512
C            2.55136248301106        1.74910879655552        0.16923870132946
C            1.75747290942150        0.61276948892822       -0.00960736310118
C            0.36995868040691        0.72287452457689       -0.22237329724910
C           -0.03883678933369        2.07339003393042       -0.42552900722297
N           -0.31788640073359        3.15957270566621       -0.66340679968432
C           -0.67858367945225       -0.19654948914413       -0.16741422951056
H           -4.66141576846311       -1.79059932505822        0.58938221993587
H           -4.65415995010660       -0.06887214867230        0.39450474006116
H           -2.30220809532661       -3.09854312625406        0.30881287818164
H            1.77796492425790       -3.67210524314376       -0.92025921376351
H            3.48338808001744       -2.43393575514395       -0.01595487916492
H            4.80293969920828       -0.59658724156345        0.71967379677853
H            4.66431323868937        2.04960397090932        0.71053366659314
H            2.20750696957633        2.76364907162493        0.09548639468878
