22
 energy: -44.303614699062 gnorm: 0.000832047398 xtb: 6.6.1 (8d0f1dd)
N            4.33244967238851        1.76600557793043        0.01874653115833
C            3.40205870081418        1.09156694417628        0.01393826910011
C            2.33040322333112        0.19957762671513        0.00670909078504
C            2.47296296504906       -1.23176351203024        0.00018001569829
N            3.62077860138575       -1.90041741469014        0.00013738063100
N            1.29372554620503       -1.84730305657617       -0.00618450982139
C            0.32216658167134       -0.92495952848103       -0.00450146912779
N           -0.89589855265476       -1.36570850970261       -0.00883816351792
C           -2.06756947635116       -0.78633306174143       -0.00816436871850
N           -3.15716298498372       -1.55243132759479       -0.01401556420525
C           -4.19160161818891       -0.70580167948921       -0.01110663368797
N           -3.90075346296002        0.58440898190128       -0.00346045783296
C           -2.55067436834818        0.65125973481943       -0.00126074235938
C           -1.95272643242290        1.88962915869605        0.00508411219597
C           -0.61077435099041        2.31041161393338        0.00746972937317
N            0.54564513996371        1.72025160497333        0.00739694067457
C            0.96007895506398        0.46858538933354        0.00350464614892
H            4.50189680911847       -1.41476522981564        0.00502925362587
H            3.59180126964012       -2.90640127998352       -0.00492326158942
H           -5.20723127636471       -1.05857300950236       -0.01477564326763
H           -2.67416296291141        2.69912052115337        0.00779401373800
H           -0.49211814075570        3.39354401717565        0.01047766139967
