21
 energy: -39.780607520290 gnorm: 0.000560156038 xtb: 6.6.1 (8d0f1dd)
N           -0.01724387851022        3.35825985365531        0.42655365247149
C            0.03945193559437        2.06302451803179        0.03604483608240
C           -1.19536527231731        1.51829528860246       -0.46613873598349
C           -1.68312758065830        0.25139829499924       -0.40998462518069
N           -2.99874850507238        0.02143644936017       -0.66493023843027
C           -3.27795977533154       -1.08095203865086        0.00088137636281
N           -2.26191234001333       -1.70494402985025        0.61500997987607
C           -1.17941338122612       -0.98644460757487        0.31509891878728
N            0.02089504037591       -1.44226396272497        0.47256222255520
C            1.22768411413305       -1.03476797273926        0.29335400268043
N            2.22662567153719       -1.91770958348969        0.16950556175333
C            3.32528017882525       -1.24417815790774       -0.15403472341814
C            3.12230984852466        0.13060397350733       -0.29483537796573
C            1.79050488816478        0.36863924544224        0.03696970737242
N            1.22625745255178        1.54167042015209        0.02114818838397
H            0.81955877576016        3.80462625560957        0.75925916453967
H           -0.87989325845581        3.87078190528333        0.40196262361415
H           -1.90554470478577        2.25361758459193       -0.82923188327483
H           -4.27666121005755       -1.47732513342102        0.04480333912316
H            4.25564219508338       -1.77200102837040       -0.27249196145096
H            3.85766772057798        0.87260084569361       -0.53384428539829
