27
 energy: -50.934398245441 gnorm: 0.000675485331 xtb: 6.6.1 (8d0f1dd)
N            3.09972155207203       -2.78247739652563        1.56841069990361
C            2.67169745830049       -1.84091418820484        1.06177300787186
C            2.26170487130545       -0.66807618232806        0.43679435051590
C            3.15079748300988        0.15335688282941       -0.34573751328451
N            4.45434974344016       -0.12632413944159       -0.50051052702141
C            2.45197252296312        1.22971742033565       -0.87441656150493
C            1.14860347858144        1.21063031552571       -0.35527979393194
N            0.39901834099590        2.25624681320899       -0.25074142479368
C           -0.80170495766548        2.45569058445991        0.28790214421089
N           -0.91322170655446        3.59143914027781        1.02877820897519
N           -1.92272367109375        1.82904535602869        0.02218317433128
C           -2.18902978941878        0.55879067022836       -0.12561796025323
C           -3.39502963340014        0.03495639148216       -0.55926024839752
C           -3.32475272365895       -1.35234488569664       -0.34472012807962
N           -4.28196594278306       -2.25887972436926       -0.57545454733566
N           -2.12930557088455       -1.75609924937417        0.14334515562835
C           -1.36321254325063       -0.67870560691579        0.26253183025965
N           -0.10500964879666       -0.84268107180719        0.55897498731706
C            0.96964096990164       -0.14220647560648        0.33597994107147
H            4.84442715163572       -0.93975224495372       -0.05579060882045
H            5.02450307025327        0.41898021918011       -1.12131131265230
H            2.86623590825726        2.01980044360705       -1.47003346595182
H           -1.83957546523477        3.93118080112032        1.22167983071940
H           -0.15507026895876        4.25043449742317        0.99745378139092
H           -4.24184674727750        0.58393204074439       -0.91858579619791
H           -5.16729767960448       -1.99244982638666       -0.96527728190661
H           -4.09007697074080       -3.21969851314029       -0.35423225876439
