24
 energy: -43.760234706488 gnorm: 0.000761505382 xtb: 6.6.1 (8d0f1dd)
N           -4.32252278823796        1.81908585247928       -0.00425630826712
C           -3.40650477699648        1.12420639783374       -0.00273565126035
C           -2.36156655443376        0.20374819220296       -0.00175593404528
C           -2.53821248207861       -1.21604542475074       -0.00106263926638
N           -3.70891847958730       -1.86255054931902       -0.00086065715287
N           -1.37057404177613       -1.85297908137545       -0.00019327155970
C           -0.38168681183174       -0.93052753975940       -0.00022571777329
C            0.90938639973278       -1.41726423691727        0.00076961968992
C            2.16180724448696       -0.81285289707649        0.00110800152336
C            3.34920826360156       -1.54256076279413        0.00223615358666
C            4.39851208656163       -0.61127863081299        0.00227386363304
N            3.96873743286290        0.63678301930560        0.00127986602066
C            2.60910061382374        0.60437491790446        0.00050836856576
C            1.97465962553557        1.82241957513516       -0.00067097946781
C            0.62979774721431        2.24912006321575       -0.00182696407832
N           -0.53146745439944        1.67779243756018       -0.00201060286109
C           -0.97558920078898        0.43388947248977       -0.00133286882038
H           -4.57362988564332       -1.35150878019565       -0.00282264628318
H           -3.70975618621247       -2.86690699919621       -0.00133494723180
H            0.93564666850487       -2.50261284935179        0.00147941299949
H            3.44155716545221       -2.61139781308236        0.00293690245110
H            5.45342301587651       -0.82289728137927        0.00299708383902
H            2.68829158384441        2.63929441116420       -0.00078331581151
H            0.52598201318874        3.33432979121968       -0.00277942422991
