31
 energy: -54.627414534587 gnorm: 0.000449989977 xtb: 6.6.1 (8d0f1dd)
N            4.32256174248549       -2.37809607552019        0.02412516977792
C            3.53912006482712       -1.53356353970496        0.01338673318060
C            2.61359520047196       -0.49414611712043        0.00307645773336
C            1.19991808940918       -0.63305337351884        0.00216298148569
C            0.65978362621343       -1.90834007240078        0.00471389904693
C           -0.61311594841051       -2.48593247947739        0.00524588697011
N           -0.60468414005093       -3.85678618407696        0.04636806339224
C           -1.90295945962477       -1.92906151510994        0.00367156582008
C           -2.44890974554765       -0.66755538425398        0.00057340224177
N           -3.80236747798193       -0.61938165299447        0.00438353271609
C           -4.15963889441839        0.66652469066624        0.00071672839529
N           -5.45456238680088        1.03727824707554       -0.03473242412721
C           -3.03494232957922        1.52376400865851       -0.00597441288266
C           -1.90922768495101        0.71041363862005       -0.00560035336966
C           -0.62094562236892        1.24596854432214       -0.00825950140099
C            0.65260613788865        0.72668663244737       -0.00500968008876
C            1.77143025244512        1.61598175123623       -0.00733519814733
C            1.71455970559382        3.00640022226130       -0.00732602850583
N            1.70277516856066        4.15822166800254       -0.00287127048517
C            2.96601960736178        0.87570839166407       -0.00266919793111
N            4.21725945610962        1.37129227998586       -0.02595522523767
H            1.44420904341931       -2.66352923058141        0.00922284628946
H            0.25774429701296       -4.35549631493797       -0.08242624109914
H           -1.46089203779054       -4.36293300497938       -0.08973569520510
H           -2.69188527182843       -2.67584217470450        0.00757027043817
H           -5.70499435524618        1.99505435466199        0.13124323737187
H           -6.15011243846558        0.32320404218305        0.09047607635286
H           -3.05475086706555        2.59645680515618       -0.01081640466397
H           -0.63049700197557        2.33407812032193       -0.01288497327687
H            4.36433001150220        2.36325263506046        0.03554786334380
H            5.00418552299455        0.75086362825717        0.04609270875878
