21
 energy: -35.782878790556 gnorm: 0.000434113858 xtb: 6.6.1 (8d0f1dd)
C           -3.44815633904267        0.94627848703236        0.00293390832392
C           -3.21403228735028       -0.41795511116123        0.00382407854267
C           -1.81278579791678       -0.59424333080913        0.00299229777430
C           -1.23713005142363       -1.85146672387442        0.00387916041927
C            0.07471210563279       -2.34422390819539        0.00346719888946
N            1.27493820558864       -1.83497989542043        0.00154693352670
C            1.77842740116632       -0.62478750155578       -0.00024324725476
C            3.17828799708664       -0.45757482165350       -0.00222841139289
C            3.41820539182289        0.90850285825732       -0.00337078364328
N            2.29339792004733        1.62815512617690       -0.00236502866005
C            1.25277209769257        0.77731309351842       -0.00058087621374
C           -0.01141842351279        1.33401352800024        0.00015931853628
C           -1.28818484623513        0.79288609213200        0.00153263125715
N           -2.31354411646616        1.65537130669061        0.00160064175922
H           -4.39761342012461        1.45118885587465        0.00320849099226
H           -3.94859918513409       -1.20012323051645        0.00495821939626
H           -1.97586791631691       -2.64833830988151        0.00523800901836
H            0.12274833396659       -3.43369915731542        0.00487824433700
H            3.89757090963499       -1.25169922066780       -0.00262086213457
H            4.37133209571042        1.40746023847755       -0.00487351050608
H           -0.00734954122609        2.41891415619101       -0.00072110476751
