23
 energy: -39.238307262317 gnorm: 0.000544437006 xtb: 6.6.1 (8d0f1dd)
N           -4.29825722102592        0.88742420358351       -0.44987987608883
C           -3.06462534405088        0.41921471766845       -0.17601845132950
C           -2.59230495395551       -0.89283947739615       -0.37608231287601
C           -1.27238396727228       -0.89998104980220        0.05450912335875
N           -0.60455581582128       -1.99685438027885        0.35726114332254
C            0.64405007360840       -2.23738961977647        0.58128315019711
N            1.72769258852445       -1.66651691610656        0.09119995888475
C            2.09392683468306       -0.45343159587188       -0.12854407752370
C            3.36812016371746       -0.14675555476483       -0.68613808430674
C            3.65144656877659        1.16881589811071       -0.41803676194528
C            2.54937582048860        1.77854697541567        0.22134117735674
C            1.52543886660113        0.85460973493023        0.36358310340159
C            0.20354905249983        1.20812058024155        0.61276651595368
C           -0.98150659887130        0.52585519089583        0.40539764633163
N           -2.11981830536850        1.23696255535709        0.31971835324278
H           -4.53591823280402        1.80179114906664       -0.10716127942048
H           -5.03558881268263        0.24415742268082       -0.67489032965699
H           -3.15710750700164       -1.73200796166256       -0.72854966934101
H            0.84211459436447       -3.18213023520436        1.08544557019605
H            4.01488885039509       -0.87499562733677       -1.13545346458929
H            4.56982444146441        1.67374492393174       -0.66163883382697
H            2.49408752806792        2.81384457957301        0.50419894346209
H            0.04646109816285        2.26499253424521        0.80190020209701
