30
 energy: -49.289238767676 gnorm: 0.000835329352 xtb: 6.6.1 (8d0f1dd)
N            2.96437266250763        1.94839833139235        0.58507853846416
C            1.73096475910993        1.42057657825125        0.34934519615956
C            0.69712124701697        2.37862200051708        0.33493504973337
C           -0.64333324846660        2.34952341736141        0.04626754683676
C           -1.60617935416481        1.35472499403437       -0.12312360521264
C           -2.93831140097024        1.71092663230292       -0.41387778105903
N           -3.76623670892313        0.67303091580657       -0.43438352676964
C           -3.02556053221636       -0.39946950806447       -0.11324049647734
N           -3.63166632631796       -1.64458901939580       -0.05921286735420
C           -1.66076056324504       -0.07536242946844        0.10347853678063
C           -0.68814865149543       -1.01556714071550        0.48076841321798
N           -1.14486743513262       -2.15683114983495        1.04476733797284
C            0.70481601276612       -0.98898308245141        0.19740567567785
C            1.38832695308605       -2.18637562527432       -0.05316568564066
N            2.66583468587394       -1.99962026103175       -0.39362491446376
C            2.88264702916555       -0.68749357172562       -0.30525482302827
N            4.15486413376997       -0.19324188977254       -0.56663790925759
C            1.70917897918181        0.04134813867042        0.05078347274736
H            3.73027978591153        1.32457617250814        0.78207652431029
H            3.03517311709770        2.90485035193872        0.88657756837580
H            1.07605615421122        3.38215949803941        0.51213025846759
H           -1.07985102029046        3.34095534011426       -0.04429537550371
H           -3.30440327408686        2.70163755135844       -0.61744201046624
H           -3.10752450016833       -2.38740135692804       -0.50451039120992
H           -4.57853871360888       -1.58357615364663       -0.41271069207135
H           -2.11095885340823       -2.21375313709256        1.32217332838622
H           -0.48993783546298       -2.83612976574878        1.38649450370858
H            0.97982207757914       -3.18118211014759       -0.09447760278701
H            4.16636302203363        0.62288680374496       -1.16586975829728
H            4.73850141474652       -0.93592316224168       -0.93194447434041
