27
 energy: -50.930068841023 gnorm: 0.000564482151 xtb: 6.6.1 (8d0f1dd)
N            4.73150722193598       -1.21544841080517       -0.68039601269593
C            3.77934635930435       -0.61971142136606       -0.42717902380120
C            2.66005346984873        0.15019694378130       -0.13623867345859
C            2.64815937291657        1.57374875692441       -0.02157666764529
N            3.70083382078651        2.37827475528118       -0.18774261789108
N            1.43868832306706        2.05680400214555        0.27622924752070
C            0.59089738769101        1.02393858000734        0.35994700738018
N           -0.66704354214827        1.27238516054477        0.55088684640630
C           -1.78393701913550        0.64077432450586        0.34052913621086
N           -2.92463544080295        1.27987628413365        0.55810835048067
C           -3.91759465027920        0.55998032945784       -0.02269810202191
N           -5.18213640802085        1.01013718498253        0.04220296971855
C           -3.45657600857963       -0.62326491696354       -0.60322158404656
C           -2.08847979376889       -0.70648365195101       -0.30609364805566
C           -1.39196917050733       -1.88767521093738       -0.28954226793353
C           -0.09893366653906       -2.21559153051833        0.21101488341357
N            0.06054274760106       -3.49403030148057        0.65112003087651
N            1.00757542459638       -1.52509549589274        0.20568370787426
C            1.35125846075403       -0.27014135484584        0.13988154655527
H            3.57687753141373        3.36686597998131       -0.05748295444016
H            4.60412836957931        1.99840244897545       -0.41008779589287
H           -5.32582346976591        1.92411308020734        0.43507594048912
H           -5.89846269665377        0.59786000488114       -0.52766975396016
H           -4.04967312688798       -1.35691964524699       -1.11347643301766
H           -1.96766514210204       -2.75574859818522       -0.59773441802855
H           -0.65691544939785       -4.18151747749381        0.50991513871063
H            0.99422515199309       -3.79884232462973        0.86755334495672
