29
 energy: -55.187510652427 gnorm: 0.000652602272 xtb: 6.6.1 (8d0f1dd)
N            4.94795529998931       -1.41276022080699       -0.00094935320541
C            3.99358012227282       -0.76810120075035        0.00135078975336
C            2.85216322681841        0.02285069011927        0.00020219166409
C            1.50363351023800       -0.41036989896180       -0.00015385399273
C            1.21327473066414       -1.76075703726962       -0.00002261457139
C            0.06504631618478       -2.56462074917579       -0.00013006957272
N            0.32403035452061       -3.90517556902492       -0.00022966276658
C           -1.29974764185390       -2.24549799624931       -0.00028537432470
C           -2.05221919682855       -1.09224308901978       -0.00030912251280
N           -3.39358621814835       -1.23802247970519       -0.00040746881538
C           -3.88576869607311        0.00316144765595       -0.00037839019929
N           -5.19109830274861        0.27438757497284       -0.00020996313384
N           -2.96050867470678        0.99054129692294       -0.00030276483805
C           -1.78434961606251        0.37021205540666       -0.00027308186374
C           -0.62407043201234        1.15581595017293       -0.00033158332098
C           -0.89993422998680        2.55286171731786       -0.00059995932399
N           -1.13087146237903        3.67504662449829       -0.00015766521661
C            0.73565335260249        0.85779137740771       -0.00033192087130
N            1.57256607700204        1.90555231903718       -0.00044312598915
C            2.82760469416190        1.44230245515981       -0.00020022493508
N            3.87912411122521        2.26680545337789       -0.00030989736873
H            2.12433143091374       -2.35715004632563        0.00011164038563
H            1.26800176830243       -4.24635222324369        0.00040797695364
H           -0.42750452064360       -4.56988195855189        0.00026046576343
H           -1.94852691128835       -3.11656644557540       -0.00037723976172
H           -5.48702251653060        1.23341724687386       -0.00101064402956
H           -5.85518901814300       -0.47756376304126       -0.00117417054263
H            3.71180104814958        3.25745894760162       -0.00011407861936
H            4.81684363066009        1.90721603487676        0.00039688135551
