30
 energy: -59.713161503671 gnorm: 0.000709308708 xtb: 6.6.1 (8d0f1dd)
N           -3.89232112583012        2.90661219402729        0.52002019564779
C           -3.02991140542181        2.17408438745867        0.32341403586531
C           -1.92652257619481        1.33498948664297        0.05531679582538
C           -0.73937905022657        2.01004343063403       -0.38427315997339
N           -0.90616420385329        3.20504961241075       -0.99448124692828
N            0.49849898989392        1.68218082063032       -0.15287969203534
C            1.26796999727078        0.65450663636492        0.01873370412696
C            2.61500115415240        0.80345509931058        0.41921730666004
C            3.21532454100800        1.97320794642138        0.88403769498358
N            3.74858077357830        2.91640275446475        1.26909472473703
C            3.29904500340554       -0.41290583299757        0.18718209780493
N            4.59839819193592       -0.63761499697816        0.40711982536306
C            2.37071332854797       -1.35689617374400       -0.32633250811773
C            2.70417978081940       -2.66562745461872       -0.66773725436458
N            3.02410516543285       -3.73568838458362       -0.94398262338270
C            1.08269412189286       -0.77525972801452       -0.35407405228996
C           -0.06533280945027       -1.51950593901581       -0.50211178678040
C           -1.40257995477392       -1.24519890841294       -0.21536985648017
N           -2.24642375678268       -2.27289962211274       -0.14751264171613
C           -3.41648664620538       -1.75220548692123        0.29240672527278
N           -4.48984380858064       -2.51056044513871        0.49991510391793
N           -3.41289543550747       -0.43031588540743        0.49893079859998
C           -2.17932277188046       -0.02558871431248        0.16537103888866
H           -0.09021368313637        3.77066571767400       -1.15817621937005
H           -1.81633168291694        3.63306551985239       -1.02762580070297
H            5.17850179874727        0.08783493084436        0.79297500824033
H            5.00253582941050       -1.53037830200504        0.18014233148756
H            0.09389730762501       -2.57181656910519       -0.71731502494129
H           -4.44378721665386       -3.49316072208142        0.29984437572129
H           -5.33619989610294       -2.08102170678657        0.82729696884641
