26
 energy: -52.000258611971 gnorm: 0.000816818821 xtb: 6.6.1 (8d0f1dd)
N            3.25198621139127        2.97975120374824       -1.34384049032081
C            2.70272020183447        2.07017657484680       -0.90261489114964
C            2.10897363852569        0.93198794537580       -0.37097938842104
C            2.82517094959382       -0.17087899319177        0.19920927059977
N            4.15017518227632       -0.27679719959008        0.28451684845871
N            2.00889934114116       -1.11575403569188        0.66794914139064
C            0.75220399442333       -0.76029421597837        0.35443011204845
C           -0.22299022800311       -1.73578650198482        0.30550526477252
C            0.19487101269247       -3.03493786569194        0.67079984965591
N            0.47535784363242       -4.11455931973693        0.94409007052708
C           -1.56115739193364       -1.66654874073343       -0.25853373522143
N           -1.97564853652870       -2.76192792567179       -0.93074460663432
N           -2.43958130486478       -0.73236982886396       -0.09762559600399
C           -2.53669185040800        0.54470640700627        0.08055414862949
N           -3.66972032437776        1.11082810921081        0.46800611317936
C           -3.45266817243350        2.43673114380522        0.55317869687454
C           -2.14866287211348        2.80725199496052        0.27816944011301
C           -1.46615157944374        1.62668541652824       -0.06454748845357
N           -0.18783610867629        1.55363593508372       -0.23222399750708
C            0.74286413862804        0.65197708312044       -0.17877615617547
H            4.74628555770657        0.43905329186914       -0.09319354015608
H            4.54344989849748       -1.07425293297371        0.75375363352269
H           -1.42921431358771       -3.60692803521976       -0.91493372470561
H           -2.93736776617293       -2.80174236548716       -1.22514564134480
H           -4.27291044967722        3.08412582033110        0.80899859615727
H           -1.73219770422024        3.79395379793060        0.27611132256402
