26
 energy: -46.420744993023 gnorm: 0.000536582900 xtb: 6.6.1 (8d0f1dd)
N           -0.03298339933048        3.64653269680791        0.32002968249352
C           -0.01832872275186        2.30275943894336        0.06131915296088
C            1.26543930669828        1.77265480410239       -0.24583184725286
C            1.77621912980763        0.50571769156742       -0.19210733022245
N            3.09739242401348        0.32673286836159       -0.44834935101092
C            3.33694571534266       -0.94235113310816       -0.14271085374387
N            4.54152709495691       -1.51499274041257       -0.27266235376986
N            2.26804172986284       -1.65829880247248        0.29604486613500
C            1.24365665561169       -0.81128762617343        0.26101137213235
C           -0.03165725668460       -1.29602173049118        0.55202364740457
C           -1.28696035643730       -0.76434916666715        0.38145957431237
N           -2.34199430712841       -1.59416548544912        0.45411761726627
C           -3.40872046019453       -0.92103403783353       -0.00776949662417
N           -4.61376020745102       -1.51605376030821       -0.07338599929743
C           -3.10658103071819        0.41398932411672       -0.34138503902563
C           -1.76265517358726        0.59761086989049       -0.05009332815066
N           -1.21014451105794        1.78782836930474       -0.01537412423224
H           -0.90859529884122        4.05269476148394        0.59960694325133
H            0.81884096279497        4.13070854248648        0.53656644607311
H            2.00499448848294        2.51849291470026       -0.51470348278063
H            4.67437652215590       -2.44035480607863        0.09198877656049
H            5.32991509199386       -0.93875181509287       -0.50327704611690
H           -0.03347051558085       -2.34708849176574        0.81778596762050
H           -5.36468347089576       -1.08016008906755       -0.57693751366502
H           -4.66190630441127       -2.49908733502597        0.12877675671492
H           -3.79212126485026        1.15603794348157       -0.69797120383275
