29
 energy: -55.183952013845 gnorm: 0.000640442709 xtb: 6.6.1 (8d0f1dd)
N           -4.35816958710285       -2.28355756442812        0.00180610835055
C           -3.54790119936831       -1.46515363550791        0.00001768292804
C           -2.58010909793541       -0.46365685947308       -0.00060517574694
C           -1.17200297779821       -0.67009615796615       -0.00118920532446
C           -0.68440053554292       -1.95417030942266       -0.00184747917896
C            0.58526248571558       -2.57069155996194       -0.00198296825695
N            0.53504152734822       -3.93286356184776       -0.00849089391337
C            1.87467876519072       -2.03560280940188       -0.00200025945492
C            2.40383433701858       -0.75965028236782       -0.00178802695012
N            3.73881516346095       -0.64129953507749       -0.00132699734189
C            3.97740434397320        0.68380022733601       -0.00028705727436
N            5.21252736669818        1.18418231209626        0.00018944570574
N            2.89119694042722        1.47402242915868        0.00010412947400
C            1.84838786154001        0.64326552869680       -0.00086506859958
N            0.65352050874678        1.16486438001977       -0.00088955078463
C           -0.56091385895385        0.69769475138627       -0.00102889538488
C           -1.63393094482488        1.61507621548224       -0.00028960410272
C           -1.55438610409239        3.00883494133135        0.00156239299528
N           -1.59692693793969        4.15766896145525       -0.00178231283690
C           -2.86706229542839        0.91611137737994       -0.00020213908060
N           -4.08269782796648        1.47743971102897        0.00058659781020
H           -1.48714455848024       -2.69029729346772       -0.00249369644320
H           -0.34475383687652       -4.41607768225791        0.01324482189545
H            1.38158484848635       -4.47178670796843        0.01166032553422
H            2.66296894234609       -2.78283187984536       -0.00229902263380
H            5.99966963044076        0.56181404678373        0.00062885617078
H            5.33215752143761        2.18076060501583        0.00171181730902
H           -4.17065765644496        2.47923931954765        0.00065244450004
H           -4.90857829717547        0.90420847047638        0.00065872063485
