27
 energy: -51.717540382461 gnorm: 0.000901992119 xtb: 6.6.1 (8d0f1dd)
N            0.44468852929280        4.23209729598646        0.63687865059584
C            0.14633498657431        3.14009083828318        0.43516412060794
C           -0.25076829998061        1.81284871719142        0.16884612918858
C            0.74963120942070        0.84867241212129        0.26953435096700
C            2.07237190173854        1.17842384391648        0.57355165418835
C            2.92511501113061        0.14895520772359        0.15561714361642
N            4.26367057406347        0.13963238727565        0.22035953565873
C            2.13247851446111       -0.91119605194572       -0.36489455318466
C            2.65522056810868       -2.10824523969759       -0.84692973353483
N            3.15623484541676       -3.06498475903875       -1.24398270354137
C            0.76412566442227       -0.58095452197443       -0.21582106158915
N           -0.13994568992182       -1.50252695516985       -0.31951539316479
C           -1.42236195392391       -1.57956957939854       -0.08699971297581
C           -2.07647020068163       -2.78259928630726        0.19162564121888
C           -3.36698861060302       -2.44230815340785        0.59524313348348
N           -3.60247833090195       -1.12854011458115        0.60119568124860
C           -2.48535623523486       -0.52715538001782        0.17119489082990
N           -2.46133003270216        0.74901890819680       -0.01944124678070
C           -1.61485276274988        1.69870785099065       -0.28477355346165
N           -2.13361680676843        2.76568322459704       -0.93897735739412
H            2.39674863643772        2.10798303998079        1.00338896832836
H            4.75900195200430        0.89908284126920        0.65221254952870
H            4.77652662927311       -0.65638338170613       -0.11807041282931
H           -1.65529481393912       -3.76403557865490        0.11140206651717
H           -4.15404017076845       -3.11980365365510        0.87763950445566
H           -1.62478495709284        3.63226639374210       -0.98709417843811
H           -3.12531052807702        2.76970875638392       -1.10986360943484
