29
 energy: -49.584796887309 gnorm: 0.000706019416 xtb: 6.6.1 (8d0f1dd)
N           -2.47812293002196        2.14235802009462        1.51590892051497
C           -1.67951539894548        1.55381164877418        0.59825095780214
N           -0.64785948614806        2.23938985316875        0.19926745590858
C            0.48819883853916        1.93798850352363       -0.37684049183219
C            1.29029913599686        0.82265154775469       -0.25358569912490
C            2.70962092851919        0.88916786349466       -0.41823624886541
N            3.44278302552683        1.96608468838484       -0.79334742533790
N            3.31923996173134       -0.22600820645064       -0.01063695796598
C            2.35032919561335       -1.07265234381613        0.37546636790578
N            2.71114311436717       -2.32972975756251        0.81783108660752
C            1.04495039916971       -0.54365494930543        0.21220449343084
C           -0.11461054367307       -1.33168241453121        0.12383213421745
N            0.02554441428316       -2.66939032640346        0.32760163496306
C           -1.43392479009095       -0.90808277257549       -0.19957345699733
C           -2.43252018484202       -1.76586886579479       -0.71469228693137
N           -3.61428296128766       -1.17232425339773       -0.82662354193742
C           -3.45608978718174        0.06586486874296       -0.33789360933145
C           -2.13841732250955        0.31757218608660        0.04028016968693
H           -2.27905075649565        3.08629037712764        1.80213088077035
H           -3.39313406533388        1.75979990388849        1.67805061586850
H            0.92276502898555        2.79564555042209       -0.88873396362482
H            3.00734497918864        2.66954760898474       -1.36471457706671
H            4.42002408368331        1.78661154734003       -0.95254220390000
H            2.24332565268147       -2.62970156912204        1.66278182931570
H            3.71809925018201       -2.40987590848138        0.88158180022136
H            0.93362211856973       -3.08043589399573        0.17001212900304
H           -0.77996559162272       -3.24032789654356        0.13173858504707
H           -2.32083885338560       -2.77669102653654       -1.07146389997419
H           -4.27888388660037        0.76037713322944       -0.33783482037473
