32
 energy: -63.937571144973 gnorm: 0.000952587434 xtb: 6.6.1 (8d0f1dd)
N           -4.76736452950843       -2.01857259607848       -0.52227775218786
C           -3.95292026387583       -1.22437290210758       -0.35063406947108
C           -3.14719621478193       -0.11551445060257       -0.10073670848010
C           -3.74231132317478        1.13875394969099        0.31046504554539
N           -5.05126609010032        1.34124451284260        0.47145772365583
N           -2.82722987956820        2.06733826771676        0.50661966241777
C           -1.60857375585685        1.52181599791745        0.23195467447554
C           -0.57114071451845        2.41453450853047        0.23235796653102
C            0.80195968168164        2.42344203359369       -0.10500219792921
N            1.29453718600474        3.67396550536424       -0.30655811407954
C            1.72855490473902        1.36728187935318       -0.18749559254810
C            3.04002436448167        1.78773128036525       -0.52776060527720
N            4.06274246034286        2.17452156397899       -0.88128343701368
C            1.64171224014407       -0.02670356473942        0.02567859834262
C            2.77947577071577       -0.81526611440453        0.22385678205019
C            4.09778726819638       -0.47915219718297        0.52560715614815
N            5.19586169760429       -0.33464698067556        0.83571052155423
C            2.34390242453521       -2.18571350704830        0.17707832237056
N            3.11458483981533       -3.25838721204733        0.35040855209610
N            1.04278720532096       -2.26446644254808       -0.06352442182212
C            0.54570909769984       -1.01073752752693       -0.11881305544388
C           -0.82904182717351       -0.93307439303717       -0.31461693661368
C           -1.37682004866672       -2.20671948972081       -0.64337131090637
N           -1.80905921403683       -3.21952678512266       -0.95946264417513
C           -1.76892988301384        0.09418516223537       -0.11760685329081
H           -5.37700550608869        2.24106853293468        0.77649681862629
H           -5.70255306303699        0.59561081204912        0.29566244020011
H           -0.94393400949668        3.40661130966105        0.47142010252014
H            0.68549609200476        4.47020214321764       -0.25409903594187
H            2.26671840812536        3.81842821487617       -0.52060856087597
H            4.09635403017744       -3.15622840250968        0.54137247388973
H            2.69531073040660       -4.17022642037560        0.29291913203611
