22
 energy: -39.517815315972 gnorm: 0.000896253747 xtb: 6.6.1 (8d0f1dd)
N           -0.00038479399474        3.08678879093025        0.66021853597926
C           -0.00117034761293        1.89651651113175        0.02005041436173
N            1.17589108070181        1.43545794894480       -0.35620103466962
C            1.70273110494289        0.25687873480222       -0.39672709981563
N            2.94671722866371        0.10093059393179       -0.88930372229522
C            3.36870931322894       -1.09277340213300       -0.48932960463066
C            2.41467869808170       -1.80882674547716        0.24234423778121
C            1.26196878012089       -1.01996144252004        0.27451571195496
C            0.00150958899133       -1.49244112501017        0.60545934140401
C           -1.26069156554549       -1.02109641004965        0.27958133606851
C           -2.41281441451997       -1.81099858626824        0.25202211401845
C           -3.37042598029570       -1.09577759370882       -0.47577100058618
N           -2.95112231547205        0.09832732821172       -0.87738677928327
C           -1.70530050459064        0.25536851118997       -0.38983222359727
N           -1.17934514089490        1.43441691547385       -0.35138881860108
H           -0.86786028235664        3.59302610577763        0.71385428579890
H            0.86685942393997        3.59378657880314        0.71029805591712
H            4.36410226797273       -1.41757070824906       -0.73843080237629
H            2.52799129406306       -2.79863993448425        0.64077904013643
H            0.00278791118515       -2.49908033152183        1.01658161038789
H           -2.52363111289301       -2.80092764030990        0.65086989902389
H           -4.36651955051626       -1.42146195286509       -0.72087978357713
