34
 energy: -68.168022496827 gnorm: 0.000460179779 xtb: 6.6.1 (8d0f1dd)
N           -1.12600768635945       -4.37421544633615       -1.24686706718462
C           -0.89057028784409       -3.34243321600614       -0.80055323340062
C           -0.54072398650349       -2.06953083850764       -0.27931466463950
C           -1.55220283883955       -1.12052164306284       -0.38453785482464
C           -2.83820862898503       -1.50284252603036       -0.81529000851492
C           -3.75131922929987       -0.50828784975325       -0.49782174577954
N           -5.07798105966012       -0.51908048591686       -0.67587020744810
C           -3.02561193941539        0.59051120535942        0.08345552158387
C           -3.71948839995540        1.72091314389117        0.51817153087885
N           -4.45254542437658        2.53797717501340        0.86227449597332
C           -1.65792301813482        0.28562452871568        0.08119056932393
C           -0.67760676560578        1.27267054743739        0.22650049861370
C           -1.13918245958925        2.59612363461648        0.48372481866498
N           -1.47069739731371        3.66528788695823        0.72723758411848
C            0.69903544085145        1.27157458493609       -0.02590120131244
N            1.25947778828262        2.46928809872436       -0.26878212031123
C            2.56379800681048        2.28397750741931       -0.46156361919175
N            3.38804843542186        3.27548285066349       -0.79731681485556
C            2.92396835747171        0.90850935666885       -0.26355805459725
C            4.22249991473271        0.43162519095309       -0.43326450195070
N            5.31272296230018        0.13024452056224       -0.63937047554166
C            1.73320948239040        0.22667892368384        0.00574629589169
C            1.70015344572408       -1.10612179123121        0.47489979696952
C            2.92062059156687       -1.51417530756390        1.07047048610158
N            3.87013403152586       -1.85640579099758        1.61837394108826
C            0.72599940665310       -2.10806788643191        0.39763422825876
N            1.03803941389943       -3.31229233570803        0.94471950521963
H           -3.08919113716557       -2.45758602733979       -1.23607267658408
H           -5.63112974326058        0.26165538122197       -0.36413627370334
H           -5.52925565695369       -1.30262012968090       -1.11302032722695
H            4.37126107400141        3.10436177095602       -0.91863333972906
H            3.01409116515593        4.20387429892051       -0.89227910296976
H            0.43593524115812       -4.10531406523536        0.80100392884440
H            1.97242666318078       -3.48059465269679        1.28159298800819
