29
 energy: -55.966903639155 gnorm: 0.000942877489 xtb: 6.6.1 (8d0f1dd)
N            3.45872428710925       -2.88802447129104       -0.00403014919427
C            3.13514186990693       -1.78492481582367        0.00156851197915
C            2.85736010109997       -0.41714314896892        0.00039861265351
C            3.86626905324204        0.58206948161878        0.00076073300716
N            5.18348190435430        0.34041416928570        0.00091946842853
C            3.23939371617476        1.83876587772980        0.00129959970819
C            1.85440729193869        1.68969673919811        0.00093076583040
N            1.10965027096765        2.77511890143441        0.00128100084190
C           -0.17344343004567        3.00873819241464        0.00145565557047
C           -1.34582921967494        2.24157084307264        0.00190534512400
C           -1.61975999806291        0.88545212469576        0.00150067976407
C           -2.95965653941283        0.42167639487416        0.00178984132893
C           -4.10639453704772        1.21623344162849        0.00280114224133
N           -5.07313213422883        1.83971271408575        0.00384601346897
C           -2.98298795753155       -0.99110734500578        0.00072622391133
N           -4.07252056266428       -1.76884901064028        0.00055911710358
C           -1.63951455766235       -1.44199285736794       -0.00012841230187
C           -1.28859284588222       -2.79400199895020       -0.00119802019799
N           -1.09672589124666       -3.92685546722640       -0.00250987239251
C           -0.76581557717847       -0.33151865756051        0.00035456943344
N            0.52332137458223       -0.55332249648505       -0.00005930437402
C            1.58523324316666        0.19847978194638        0.00006655491628
H            5.51829308151991       -0.60837067573577        0.00044115011426
H            5.84349633038573        1.09757805364932        0.00138385980947
H            3.74121101751396        2.78788517779927        0.00201272422476
H           -0.36663199287044        4.08138646534934        0.00138162984094
H           -2.24388880183514        2.85259604346350        0.00248632776966
H           -3.97461794950301       -2.76981602260758       -0.00023490612431
H           -4.99034610491505       -1.35810842078284        0.00128491401466
