28
 energy: -46.638890063109 gnorm: 0.000416839564 xtb: 6.6.1 (8d0f1dd)
N           -0.00324295214788       -3.39812331917831       -0.00655829771504
C            0.00891254652817       -2.25014152357032       -0.00546332293240
C            0.01277001466334       -0.82606531481406       -0.00399616009543
C            1.31010463212720       -0.28959129122966       -0.00900097357023
C            2.43260662690471       -1.12142919133763       -0.01192922609885
C            3.60182581701917       -0.34337534042903       -0.00778865034516
N            4.87150145544592       -0.82442220964019       -0.06135304671246
C            3.22145561685237        1.00111488884031       -0.00504773499062
C            1.82259145990719        1.10034329766529       -0.00588315272461
C            1.22360289935907        2.35088354164000       -0.00353410472694
C           -0.08313273374086        2.83701035942223       -0.00225087539162
N           -1.28536726109257        2.32757562498809        0.00040605866180
C           -1.80055926988189        1.12371037199838        0.00372096005004
C           -3.19756220926057        1.02208911022275        0.00520369287139
C           -3.57587618332470       -0.32392146207938        0.00445354044869
N           -4.84413339184060       -0.80291236249625        0.05367091199664
C           -2.40882780081159       -1.10534449212764        0.00490020629719
C           -1.27847771834446       -0.28366417074459        0.00287167718560
H            2.41403888509986       -2.19537996661339       -0.01536874611799
H            5.01723518187920       -1.79968359670112        0.13482388014581
H            5.62959221121259       -0.19880655385817        0.14954190129459
H            3.89500209732907        1.83863221951768       -0.00273039570850
H            1.95761671672510        3.15174611839189       -0.00404843744569
H           -0.13406915512909        3.92710104680169       -0.00359893623926
H           -3.85687738884399        1.86854281002005        0.00588460502234
H           -4.99624723214011       -1.77917564916354       -0.13178682123105
H           -5.60387184101293       -0.17273246035378       -0.13536856162340
H           -2.39918429108172       -2.18020717457130        0.00512444479509
