31
 energy: -48.999353271274 gnorm: 0.000491677917 xtb: 6.6.1 (8d0f1dd)
N           -3.06734207911254       -2.23716008087472       -0.78618715195548
C           -1.94130877230115       -1.57003353957176       -0.40865717385195
C           -0.76161051747276       -2.30635398961749       -0.45192766824002
C            0.56139949605800       -2.02890105472694       -0.13916986916144
C            1.34067381945130       -0.90391697842402        0.05781135109898
C            2.73897218708700       -1.06151480949674        0.32944930153424
N            3.38519931232948       -2.24522472821358        0.59203679922473
C            3.36873587881990        0.16918164570590        0.23205720561646
C            2.41549228998307        1.13260001686921       -0.10030247507052
N            2.71386713837663        2.48156040801048       -0.23466983504510
C            1.13553090343407        0.52270809388786       -0.19626433162284
C           -0.03037863361682        1.24342144368474       -0.46257370455281
N            0.10255116544432        2.47485724007282       -1.02699952747609
C           -1.35758216575676        0.94505746068484       -0.02606316057793
C           -2.19222426197882        1.96090641316941        0.46396260244321
N           -3.37880935731459        1.49875414779735        0.86856071525342
C           -3.38338648587460        0.20105554235250        0.57937109405196
C           -2.15617098321512       -0.23965674609303        0.04388399216012
H           -3.04271629015814       -3.23560863859402       -0.90288420958588
H           -3.95962479923627       -1.79686274134998       -0.64906283515560
H           -0.92838848792281       -3.34844235695360       -0.71327397652374
H            1.14933354077823       -2.94162639622918       -0.08605460218985
H            4.32168518394432       -2.14856818605967        0.95067953149205
H            2.84748327770233       -2.97265838724922        1.03465696106538
H            4.41401436780852        0.35962948240215        0.40043714728370
H            2.01813614363585        3.10407094358732        0.15529011085970
H            3.64379076970164        2.70160822985756        0.09703089029188
H            0.95169315928045        2.69534833840424       -1.51825303882878
H           -0.73844824663297        2.96462392477834       -1.27912076520377
H           -1.93826548594406        2.99566562849252        0.62039128234108
H           -4.24405852959750       -0.39403028170386        0.83668242412468
