25
 energy: -47.493911165491 gnorm: 0.000350841941 xtb: 6.6.1 (8d0f1dd)
N           -2.87824367001192       -2.83439429495664        0.00017961225204
C           -1.98482154499534       -2.11321053677657        0.00063228943309
C           -0.83057928017662       -1.28025445506493        0.00073062531597
C            0.39998553880995       -1.97745344521020        0.00060988240478
N            0.30573198965488       -3.33362769553097        0.00112811236630
C            1.72325715174926       -1.50153068745445        0.00014247869746
C            2.36092874558583       -0.28428402839182       -0.00046390560972
N            3.71738771998463       -0.31144938305732       -0.00120691582785
C            4.09190925623728        0.95714280673746       -0.00169070855236
N            3.11316656669247        1.86246850036079       -0.00125390083455
C            1.97339238593366        1.15170822669309       -0.00046975916750
C            0.76969860159060        1.82541070704784        0.00029572989228
C           -0.54604450011330        1.39573956104221        0.00108339017886
N           -1.51333010011811        2.31936733637753        0.00172478191553
C           -2.66955483459693        1.63309757938090        0.00214582842370
N           -3.85982180277920        2.22875947341849        0.00283385704851
N           -2.53471594086879        0.29513173142016        0.00178376348150
C           -1.21720983474839        0.06592127437571        0.00117712098611
H            1.13638380017670       -3.89755886226875        0.00019134849019
H           -0.59224126650073       -3.78667416398849        0.00083179589595
H            2.45792363393520       -2.30300285872327        0.00008853870123
H            5.12780633954533        1.24461173570055       -0.00239520401052
H            0.87242993789081        2.90454154223856        0.00025201272156
H           -3.90846792013604        3.23129413539846        0.00315488736392
H           -4.68944142744128        1.66346602333168        0.00316614263353
