27
 energy: -50.946019593316 gnorm: 0.000507894361 xtb: 6.6.1 (8d0f1dd)
N           -3.21337735386021       -2.80715623904552        0.68851751079998
C           -2.35581388357100       -2.07313757553521        0.47132389164636
C           -1.25760925344597       -1.23563233242838        0.18450456849518
C           -0.05001755685443       -1.91345546254835       -0.16700259863608
N           -0.17642461615322       -3.15397905721932       -0.70079398197656
N            1.17833870169239       -1.55282731287804        0.07831082406331
C            1.92746681284955       -0.50613409934316        0.16620207820773
N            3.18673953915215       -0.64057081801956        0.59937433514507
C            3.82235626240585        0.50205686253523        0.29676872518875
N            5.11871052426053        0.66116846525323        0.59169686608924
C            2.97559470444558        1.45334107793322       -0.32533229368227
C            1.70943913818264        0.89184535417554       -0.35310899181544
C            0.53733716808851        1.59536633391412       -0.59262553592992
C           -0.78581241560705        1.32414358149538       -0.29456421379181
N           -1.66384337373070        2.34135982398231       -0.33251195764575
C           -2.81332335611848        1.83528329643122        0.13996772151420
N           -3.91581713413297        2.57414788418089        0.28747262953206
N           -2.78561176368698        0.52974253724097        0.46476231996459
C           -1.54268753835238        0.12856079065062        0.18451484934995
H            0.65484977801393       -3.71570351420987       -0.77577222349490
H           -1.07701632936854       -3.60288054204271       -0.71437367830423
H            5.60509659180610       -0.09704231992239        1.03635034562856
H            5.61845834990280        1.48131081242244        0.30123345131106
H            3.26018262193889        2.43724554845410       -0.64304542602936
H            0.68305935039838        2.62606681334833       -0.90009607299903
H           -4.75614264243978        2.13068244356450        0.61007294752956
H           -3.91653413041583        3.52564256561026       -0.03010500786022
