25
 energy: -52.291285768846 gnorm: 0.000788025642 xtb: 6.6.1 (8d0f1dd)
N            4.59629128350923        1.94563728066045       -1.33102093363647
C            3.83465343621493        1.22620322295649       -0.85811099393788
C            2.95554149184231        0.29859249007730       -0.30507854482521
C            3.25580654635081       -1.07217503445184       -0.07681399163339
N            4.40833914580968       -1.68018067582285       -0.33690065021452
N            2.21751743571098       -1.75873659100258        0.45007221172914
C            1.19942738985282       -0.92822434249905        0.58600060099235
N            0.00042375856380       -1.39730299841372        0.76274391445888
C           -1.19891563340487       -0.92892435676170        0.58587235834939
N           -2.21616373506343       -1.76030480266319        0.44915645160918
C           -3.25537683254286       -1.07422629031592       -0.07659185985484
N           -4.40737740944534       -1.68314654224677       -0.33694014503530
C           -2.95645661774079        0.29698319962761       -0.30365183584894
C           -3.83657063913513        1.22432207496309       -0.85584946017211
N           -4.59888960265516        1.94342009789356       -1.32849598763389
C           -1.68362929575036        0.50792085768864        0.24974870926300
N           -1.17068050292170        1.63188594735663        0.60545966503302
C           -0.00068223142818        1.98900429779954        1.06056926695567
N            1.16922367461987        1.63235112050146        0.60486373808995
C            1.68277163796510        0.50883290689878        0.24866566325337
H            5.16612069989096       -1.17932120785271       -0.76940317135297
H            4.50696348580693       -2.65213140247941       -0.09708948908288
H           -4.50491447414092       -2.65544904314364       -0.09813494089365
H           -5.16589540271006       -1.18256138499191       -0.76847523009700
H           -0.00067883919409        2.83135603311958        1.74531573678480
