25
 energy: -47.493708362149 gnorm: 0.000666534248 xtb: 6.6.1 (8d0f1dd)
N            4.40583169842590        1.50872116171405        1.32474082781206
C            3.54855525735054        0.90357666775087        0.85326385246199
C            2.55476059121581        0.10113705707433        0.30378877769221
C            2.68863374654587       -1.28777975867274        0.03236308179614
N            3.76761724995752       -2.03709564899719        0.27301240745098
N            1.57858022861546       -1.81631278085917       -0.51328199020196
C            0.66323242547890       -0.84505865290046       -0.59346435989612
C           -0.66411850972703       -1.18700772751722       -0.78964201167166
C           -1.83290889418738       -0.49492147232603       -0.50085586713545
N           -2.95754066679329       -1.18002535042944       -0.32876833715130
C           -3.84868757751706       -0.35067875401075        0.27640380985148
N           -5.06376798290990       -0.80906082411916        0.59925128347305
C           -3.33296431648301        0.93500236807089        0.48954050769068
C           -2.06522930065193        0.94483467740220       -0.08416250262143
N           -1.40447844302196        2.02097234216234       -0.40969222901770
C           -0.19306114032226        2.24300193380668       -0.82916780137212
N            0.92769561134532        1.68085163203155       -0.47081850144755
C            1.28811933865801        0.46623021181457       -0.19107650467616
H            4.58391101524480       -1.63148702137530        0.69618932875866
H            3.76282942469529       -3.00149235241531       -0.00832763504218
H           -0.81914496057926       -2.24591242599829       -0.95954390595045
H           -5.31177294637915       -1.74443018161477        0.33007210941541
H           -5.73151243733940       -0.22101471815896        1.06299811985304
H           -3.84629492282765        1.77089605789338        0.91803465020220
H           -0.07059792879314        3.16261070296955       -1.39796938387393
