22
 energy: -39.516828965902 gnorm: 0.000414273153 xtb: 6.6.1 (8d0f1dd)
N            0.12595962767843        3.16116669419579       -0.68753004604561
C            0.04234728441617        1.95478546074794       -0.08086438974796
N           -1.16293541952754        1.54185903745588        0.24556779395676
C           -1.71962930247119        0.36418263759324        0.26095152474425
C           -3.04245284909025        0.12808365385322        0.67316615188202
C           -3.38069406877818       -1.12224683155574        0.17838472458654
N           -2.37413956016313       -1.73778542029112       -0.45451093683672
C           -1.30423696645375       -0.92948194673987       -0.38496249759297
C           -0.05918772953199       -1.45391366372232       -0.66987524484082
C            1.21222991889891       -1.02476959217137       -0.30201714062129
C            2.33133869711460       -1.84729603635214       -0.22992696467526
C            3.29502695939831       -1.15141696970314        0.52239188170177
N            2.90138095731304        0.05012797368453        0.90491205420342
C            1.67133557187111        0.24301575291923        0.37246324016915
N            1.19091878047388        1.43617572319750        0.32343203437659
H            1.01848780515013        3.62412654794861       -0.69503107259614
H           -0.71180572563651        3.70969383027273       -0.77659403192475
H           -3.67673521651596        0.82254617445034        1.18547813491584
H           -4.33451551033829       -1.61418742754865        0.25821360274865
H           -0.10647692760544       -2.46460755542893       -1.06256352765522
H            2.42374900277223       -2.84418434118483       -0.61510092041738
H            4.27338796942553       -1.50718925712047        0.79558967736914
