28
 energy: -51.445600478129 gnorm: 0.000626179315 xtb: 6.6.1 (8d0f1dd)
N           -5.27192559900693       -1.17747274110141       -0.01843724454797
C           -4.26345921342817       -0.62213931896142       -0.01103164540278
C           -3.06709639675443        0.09108571634686       -0.00146514350719
C           -2.98821381232828        1.50639187587214        0.00537954716561
N           -4.04007448532712        2.34197862804764        0.01412395802066
C           -1.63167611619259        1.86207397165118        0.01099010926652
C           -0.83890189874203        0.71448253500909        0.00729024195474
N            0.46745754034527        0.85866682413582        0.01088057345982
C            1.47668345211862        0.04261028342006        0.00898983566117
C            2.78969698414764        0.58386039077354        0.01519354819186
C            3.12726577210684        1.93586659998148        0.02222187666686
N            3.46968689795705        3.03443338722135        0.03265731582984
C            3.73323894236710       -0.46949993817119        0.01351578492892
N            5.06684245775993       -0.31426083089031        0.01583356360649
C            3.03198866350845       -1.68771957768708        0.00537036429656
C            1.65915626423545       -1.45846496778167        0.00189101096552
N            0.85227491433092       -2.50223943378408       -0.00669019613382
C           -0.43970478549274       -2.66078693784521       -0.01130986989819
C           -1.56897488835504       -1.82582625685430       -0.00814396820736
C           -1.76096259999494       -0.45961542327734       -0.00079621549005
H           -3.89867648857000        3.33563246088405       -0.00732326376611
H           -4.97581444298643        1.97589116678367       -0.01385947836505
H           -1.23973763386051        2.86073588285946        0.01689689049722
H            5.67362142199945       -1.11412305653428        0.02291973196617
H            5.46456446891803        0.60899588648285        0.02883083477858
H            3.47865863153406       -2.66414703203779        0.00197596175758
H           -0.69574797740768       -3.72065689827936       -0.01920333720580
H           -2.49991790948221       -2.38604596046163       -0.01313998078813
