24
 energy: -42.978955046339 gnorm: 0.000670606599 xtb: 6.6.1 (8d0f1dd)
N            0.89947980197003       -3.16291873093518       -0.74755978481167
C            0.63135228093892       -1.98835827691628       -0.12358976316049
N            1.69906577958170       -1.33404222566383        0.32905768313305
C            2.03462620895265       -0.09034009740117        0.33998821733071
C            3.27958698145458        0.34635190894541        0.85819616177343
C            3.53448087723894        1.60585040608279        0.36432931184039
C            2.44247076867073        2.05914473363676       -0.39938077245595
C            1.43934302839102        1.09710604721115       -0.38613994760687
C            0.12063973729622        1.36389090836934       -0.71535886022474
C           -1.04966390797996        0.69793628021393       -0.37954034763576
N           -2.21960521734473        1.35450468985475       -0.38414434174591
C           -3.07875476981915        0.53009067961180        0.24597939119655
N           -4.34464974757927        0.88521699699443        0.48934151844387
N           -2.58829532335327       -0.66016816616556        0.63262892042318
C           -1.32258389880015       -0.65208201685990        0.21367652623930
N           -0.62594659797040       -1.75340461667239        0.14711375723506
H            1.84009578744304       -3.51552976587344       -0.71576966625242
H            0.13917888724462       -3.81137922729632       -0.85943635319822
H            3.93738641082659       -0.26836516717198        1.44072015006689
H            4.43234742943107        2.17266889251531        0.53910278209595
H            2.36542299655525        3.02748456577361       -0.85815913220612
H           -0.06030629040534        2.35694625451663       -1.11374975205015
H           -4.70154857302540        1.72833436380235        0.07845043813494
H           -4.96162860231736        0.21138741812743        0.90459368653491
