23
 energy: -43.254354044559 gnorm: 0.000919627886 xtb: 6.6.1 (8d0f1dd)
N            1.02650413110316       -3.31474289954966        0.44866194435293
C            0.72552200226241       -2.06729130160035        0.01503697977416
C           -0.64528776146367       -1.81125626932627       -0.27186597831565
C           -1.37543617523940       -0.65632441752117       -0.20461195623598
N           -2.70760450787862       -0.71402583324213       -0.43787858356125
C           -3.17442084458498        0.48059221181403       -0.09175574572643
N           -4.46386664601273        0.81472888304290       -0.15588398177614
N           -2.24236064895604        1.36892105768780        0.35403075063866
C           -1.08331016323653        0.73160875076290        0.27783461224426
C            0.08696143399586        1.44784404435301        0.55037769188186
C            1.40129080078237        1.16033140707383        0.29150587367098
N            2.33509947970938        2.13492430927380        0.28771928753936
C            3.37921795425407        1.60335073996675       -0.33374746632907
N            3.28484397338878        0.32674297307443       -0.70877160971279
C            2.07766683362531       -0.06315093402698       -0.27833006514768
N            1.76154916300371       -1.31654892859295       -0.22695499148266
H            1.99459330154798       -3.56385477931094        0.55471435632850
H            0.31505978359166       -4.01629722751245        0.54789427178729
H           -1.23680133651379       -2.68364377031222       -0.52418572793612
H           -4.74141546364565        1.73964777433274        0.11669624733030
H           -5.12815825732429        0.15558154515329       -0.51772865563899
H           -0.10036824863914        2.47148194968892        0.85500502495665
H            4.27010747903008        2.17502178207072       -0.52508652484212
