27
 energy: -56.523777738425 gnorm: 0.000918843005 xtb: 6.6.1 (8d0f1dd)
N            0.97439062362730       -4.40582288427211        0.57495486614551
C            0.90179865308171       -3.27379157819720        0.40220262318595
C            0.90026024357865       -1.88329425724162        0.14318571906436
C            2.17860307757359       -1.35522168100507       -0.29399707068867
N            2.94249751150441       -2.16007377132620       -1.05544246046631
N            2.70499395488282       -0.24204433794644        0.09519653608454
C            2.35152991537355        0.96103653738408        0.41622790836646
N            3.19267872335009        1.83353324736525        0.97282207415193
C            2.60818183596866        3.02208464328171        0.79957230014921
N            1.42997386605446        3.03194948356108        0.18693683063523
C            1.13211897292528        1.73625771283527       -0.01139013057958
C           -0.15449748135306        1.33743493439295       -0.33612534757649
C           -0.97762610673743        2.42054715255225       -0.75336516179085
N           -1.60137390503974        3.28905621429556       -1.16365727611336
C           -0.80879321542452        0.10252720161684       -0.12330225274234
C           -2.19511043426430       -0.01866318847253       -0.08481903936145
C           -3.23637976809633        0.87546276408186       -0.33208441649674
N           -4.20601324080810        1.47190284935470       -0.49365975643743
C           -2.48109986179922       -1.36455562743475        0.37846603726067
N           -3.69726685878744       -1.86110189759716        0.57898746394520
N           -1.37111955974546       -2.04966153862766        0.57980015865481
C           -0.32317512406997       -1.25757506024294        0.25172251518788
H            3.88500527391186       -1.87073631175382       -1.25984657156446
H            2.67522911509811       -3.11681302840408       -1.21744698139242
H            3.07357835226560        3.93016667656332        1.13595423132746
H           -4.51341024093736       -1.30214332475914        0.39415094771787
H           -3.78925039813393       -2.80242539320085        0.92091932583543
