27
 energy: -51.725115965125 gnorm: 0.000871656229 xtb: 6.6.1 (8d0f1dd)
N            5.26666220257203        1.20685887772912       -0.00596067455381
C            4.24140215014419        0.68603635230898       -0.00341470228287
C            3.04902488557742       -0.03906641912141        0.00059591494242
C            3.00586602300860       -1.46944143318234        0.00741670491921
N            4.08912885640787       -2.25736921890324        0.01055530264656
C            1.66981217892745       -1.86589259303048        0.00995888294684
C            0.83359501926264       -0.74150020180594        0.00498856280460
N           -0.45695050809619       -0.92341616255746        0.00574683200314
C           -1.49245781222438       -0.12091390757829        0.00163544869004
C           -2.79828272779483       -0.64902625666796        0.00434880132919
C           -3.20167706320700       -1.98000211909616        0.01216600365321
N           -3.60357770897636       -3.05785423760391        0.01368554422620
C           -3.68167166182535        0.47074269467776       -0.00172873084292
N           -5.01688944658202        0.42200949357705       -0.00166492404933
N           -3.01531980878258        1.62875322372387       -0.00754527541603
C           -1.69729156301527        1.35863578772827       -0.00572058106620
C           -0.83494367412877        2.44305194400537       -0.01030012372464
C            0.55337801655598        2.58374882520505       -0.00996372586132
N            1.58316232040987        1.77777386078371       -0.00657682544512
C            1.74357325678444        0.47678021178400       -0.00101213456547
H            3.99240350392798       -3.25716748553743        0.01563165238616
H            5.00833347975086       -1.84876716941498        0.00836664471322
H            1.30899427002410       -2.87668904137512        0.01490648681448
H           -5.49554735601133       -0.46131249379076        0.00282854212368
H           -5.53487391926814        1.28282875298676       -0.00605671880395
H           -1.37619309099094        3.38203823441886       -0.01470508831578
H            0.88552337365000        3.62167456363676       -0.01369864517070
