29
 energy: -50.369780913415 gnorm: 0.000881952308 xtb: 6.6.1 (8d0f1dd)
N           -4.73973272538247       -1.31940686373512        0.07186623223494
C           -3.82050567905542       -0.62420485761027        0.04606544135763
C           -2.72396017269304        0.22896167000254        0.02004785692664
C           -2.80215735041761        1.63592487952761        0.00542235343795
N           -3.94143273500352        2.35781309023632       -0.02492981509702
C           -1.49296332591568        2.14305131864764       -0.01310081824703
C           -0.57120585015044        1.09901496312709       -0.00935631032396
N            0.70848403759281        1.39960696311706       -0.01800764401272
C            1.82065819491859        0.74078192564794       -0.00901801752475
N            2.94600981138061        1.48226969438443       -0.00953655468093
C            3.98384816753627        0.64495516429181        0.01073908758866
N            5.24955877238860        1.10719875197664       -0.02050550240950
C            3.57952795199846       -0.70906971309412        0.02087529413883
C            2.19257586887454       -0.72257243031270        0.00867275529867
C            1.47855601593417       -1.91840750478836        0.00084589670118
C            0.13871741434775       -2.28023928419655        0.00194282682205
N           -0.09698650922373       -3.63766784502948        0.04788167547867
C           -1.04379389350300       -1.50686003975877        0.01488437119146
C           -1.35339382627464       -0.17296819898178        0.01036111781111
H           -3.90020794076145        3.35523775156822        0.08164339804150
H           -4.82534269286221        1.89427534142062        0.09509924558573
H           -1.22131245308162        3.18070973276986       -0.02733771583666
H            6.01487730640650        0.48955476137946        0.18177812935231
H            5.37961402336760        2.09757485651627        0.08932624242038
H            4.23514513862930       -1.55999064330930        0.03632048050331
H            2.14237658248208       -2.78143965598817       -0.00069888676457
H           -1.02347524009063       -3.97543663915472       -0.14503183001379
H            0.66094164914281       -4.26783636990985       -0.14734614857204
H           -1.93415150798464       -2.13392527534427        0.03074125489194
