23
 energy: -44.024522857670 gnorm: 0.000747849960 xtb: 6.6.1 (8d0f1dd)
N            2.92443557166717        2.97583964924962        0.01144912783036
C            2.44516860106544        1.93126528548477        0.00775130770888
C            1.97840500055102        0.61855133261984        0.00344201096876
C            2.83271397092806       -0.53680726938405        0.00126062133468
N            4.16664098801290       -0.51806781873668        0.00303871926108
N            2.13082891496480       -1.66475756475065       -0.00289123825910
C            0.81635998591484       -1.35011904037287       -0.00362514250761
C           -0.07345482365622       -2.40476521374750       -0.00763125854396
C           -1.47430246868683       -2.51165016311933       -0.00946473471846
N           -2.47788131434462       -1.68570389132559       -0.00880300522456
C           -2.58846480160379       -0.36936899530490       -0.00537397985816
C           -3.84449834861351        0.22420234591514       -0.00606381833809
C           -3.64243201886414        1.61656957535106       -0.00138960706794
N           -2.37161829268125        1.96188786834802        0.00191046770973
C           -1.63130622988329        0.82509453892290       -0.00030154587372
N           -0.35207800702140        0.97344358810854        0.00166073001742
C            0.66451567110187        0.13581500849212        0.00047616898143
H            4.66502647135253        0.35481716805949        0.00616490214005
H            4.66701881518250       -1.38966370797905        0.00126101901109
H            0.43978285692106       -3.35965179703855       -0.00960987206524
H           -1.82450162149255       -3.54395909195207       -0.01229871924817
H           -4.78401312510751       -0.29188340359496       -0.00929895128419
H           -4.40574951661071        2.37587582865660       -0.00030009217297
