25
 energy: -38.687893241426 gnorm: 0.000365819795 xtb: 6.6.1 (8d0f1dd)
N           -3.92535587907687       -0.98606340381235       -0.05031251486122
C           -2.93201046808569       -0.05363538120486       -0.00943555567451
C           -3.13234246398485        1.32521227153836        0.19970167695186
C           -1.90329747613312        1.93746161693931        0.25461729313485
C           -0.86571400198909        0.97543162583506        0.13086566483679
C            0.44552845326055        1.37848042394571       -0.01625239163897
C            1.67588515346132        0.72922679321641       -0.14970918368713
C            2.86892180670304        1.47152874181703       -0.25802248161703
C            3.96412215173681        0.61912209303649       -0.17169643622535
C            3.49470234356213       -0.66831562888446        0.03969357717998
C            2.08520503905827       -0.65459181024548        0.03421165750153
C            1.32362528825692       -1.79037098526999        0.30703831667646
N            0.12004784441003       -2.10916731232724       -0.04774961799885
C           -1.00466705823189       -1.55427346817029       -0.37384036019518
C           -1.54084130849566       -0.31476300483960       -0.03837344869292
H           -3.70823258932895       -1.89550193695786       -0.42287736712360
H           -4.86130361397083       -0.65318618758648       -0.20992993827820
H           -4.09212182612665        1.80375515613410        0.27406216886062
H           -1.73398955595725        2.99329690117656        0.36615125566212
H            0.55166196835802        2.46081673399646       -0.01586555579471
H            2.91362511311983        2.54059300380949       -0.36849630469941
H            4.99675918650972        0.91236042489680       -0.23222775445019
H            4.09539782746711       -1.55271314147803        0.15678459992841
H            1.85045778090418       -2.61357340994895        0.78990962974118
H           -1.66663572532673       -2.24796203821604       -0.89676319843647
