32
 energy: -53.543187531011 gnorm: 0.000694924913 xtb: 6.6.1 (8d0f1dd)
N           -5.36464019351274       -0.34088925305094        0.12638132337589
C           -4.22435036960256       -0.18805605742402        0.06392660079949
C           -2.84532429841260       -0.01928447403291       -0.00357509578580
C           -2.16954926553646        1.11501537234390       -0.48080637770727
N           -2.78965380745812        2.25823622585502       -0.88344409410398
C           -0.77254383042907        0.91076387179941       -0.29835006618318
C            0.11344120041973        1.96888001523559       -0.39078327466938
N            1.23778918282585        2.18611086915834        0.23490168906633
C            2.22283394468289        1.44689164297785        0.65589220704000
N            3.00030919320685        1.97340860541439        1.62918391244639
C            2.65839688818440        0.22654469066190        0.05209441908375
C            3.99108279945231       -0.03046753202782       -0.27248550128847
C            4.07223464407712       -1.29242891119656       -0.86151212940469
C            2.81378989491613       -1.85851553324877       -0.84131389598315
C            1.88767209511972       -0.93567235091080       -0.28948789060615
C            0.55182686045462       -1.29340994591561        0.03511209585223
N            0.34660018453622       -2.63279952047794        0.18914982713426
C           -0.58759673389599       -0.46890862583531        0.17222042974752
C           -1.88409509261353       -0.97443021408274        0.40846725545318
N           -2.24296280391688       -2.21783205241797        0.89841464871598
H           -3.77863089031220        2.19587425765894       -1.06267028894865
H           -2.27511138831754        2.91109380068005       -1.44933293654415
H           -0.24351347413538        2.86080103582966       -0.90322960024818
H            3.89332866195759        1.55238188021173        1.81379672028446
H            2.82801955164165        2.91650557943050        1.93459764398878
H            4.80614615282869        0.66411719987267       -0.16128187106479
H            4.96272562813540       -1.74469043359233       -1.25931228047897
H            2.58040194187834       -2.82325812055285       -1.26024883302728
H           -0.57367945108221       -3.00181240546690        0.00449086585196
H            1.12868963037365       -3.23081055976258       -0.01915127445324
H           -3.23540787482013       -2.29624330124435        1.08107998840291
H           -1.67691004164599       -2.55554878698934        1.66447499205394
