26
 energy: -51.216766310600 gnorm: 0.000474577063 xtb: 6.6.1 (8d0f1dd)
N           -3.07935634112096       -2.63610656984739        1.37422183127424
C           -2.26377638334570       -1.95997552093085        0.92744193976057
C           -1.21209401141163       -1.19840818418168        0.37903314415472
C           -0.15936185240876       -1.98173786061355       -0.25171748544356
N           -0.56771037415896       -3.15553318083542       -0.79498081371171
N            1.11254356759816       -1.76514345108908       -0.28690686173836
C            1.93681558820574       -0.75541589365029       -0.15193985995563
C            3.26181149845444       -0.85796061218500        0.21020139382331
C            3.78132734623540        0.45939599734169        0.19337195032112
N            5.03669643567352        0.82696561230061        0.46019413669738
N            2.85840165627107        1.38684626184995       -0.12126081379676
C            1.70956557351824        0.74734746350053       -0.32897604688392
N            0.63353929503409        1.41779401407480       -0.57465132161290
C           -0.64224572429619        1.24815899434765       -0.42179358057150
N           -1.51431441034132        2.20704413191722       -0.70668588991053
C           -2.64806614969001        1.85447481759983       -0.05401459867693
N           -3.72899550116122        2.63030091160761       -0.08129687009256
N           -2.62226303329624        0.68859182456467        0.60428553431681
C           -1.42411163877159        0.16271664857448        0.31030306124841
H           -1.49444638749945       -3.50107801671152       -0.61139054845525
H            0.13660056182341       -3.79316525244621       -1.12474703777617
H            3.80655041640204       -1.75414437973122        0.42889951153218
H            5.73876811837619        0.14883900595641        0.69393753544486
H            5.27367053415302        1.80127865582097        0.38973004604681
H           -4.52794401141964        2.37737746222321        0.47150694834197
H           -3.69603902711657        3.49152576363596       -0.59571948253332
