29
 energy: -55.967370976385 gnorm: 0.000642159956 xtb: 6.6.1 (8d0f1dd)
N           -2.95491524674415       -3.02817933112764        0.05183774140007
C           -2.61761257429184       -1.92770730247046        0.04762840443542
C           -2.39766687277231       -0.55345493349056       -0.04091618364046
C           -3.40373717635326        0.29712128657785       -0.62314974459431
N           -4.57964094613143       -0.15524947173343       -1.07840798528068
C           -2.93726698710426        1.60705504804502       -0.62346493604889
C           -1.67962662122884        1.64106402334731       -0.01006161863331
N           -1.17585554011281        2.73481489810695        0.48761915468736
C           -0.00248165063517        3.06722270336482        0.94218153591580
N            1.17072704118519        2.73700645587989        0.48562207406591
C            1.67564206579366        1.64421443467419       -0.01302847245503
C            2.93221612523930        1.61263363460640       -0.62873534857452
C            3.40107656276830        0.30355364543347       -0.62953624692211
N            4.57696270154474       -0.14656977022070       -1.08707075157726
C            2.39764237707942       -0.54897911348473       -0.04561584701967
C            2.62017202530566       -1.92287160348469        0.04200241603573
N            2.95924375131415       -3.02267129721267        0.04487197466526
C            1.26988814242185        0.22493887275899        0.25587217007946
C            0.00030817927427       -0.31536124339783        0.51530656295189
C            0.00191662838201       -1.68126598848616        0.90519258186648
N            0.00353163657193       -2.73593482599791        1.35496761508084
C           -1.27076724554287        0.22256157998879        0.25829603877789
H           -5.24272263747828        0.47245390875563       -1.49621175881108
H           -4.81559766686237       -1.12779905370040       -0.97237298491931
H           -3.47798900490662        2.47316223894218       -0.95017933783854
H           -0.00264149532393        3.89347610325545        1.64962095126854
H            3.47073163299947        2.47980503727017       -0.95633812091706
H            5.23808945018488        0.48242419749589       -1.50602362041970
H            4.81485019483122       -1.11872976019832       -0.98177445858038
