25
 energy: -47.488091659179 gnorm: 0.000563485768 xtb: 6.6.1 (8d0f1dd)
N            0.35503059854912        3.47135862370516        1.27621022435155
C            0.13941049337599        2.41732627155212        0.88015674281566
C           -0.09432876623779        1.08413090802313        0.44751913328134
C            1.06961922647260        0.31511512331024        0.23775222785714
C            2.33224419774253        0.85854147399780        0.20410534543866
C            3.24068216401533       -0.08228281020856       -0.37765551360897
N            4.54568984402475        0.16005667137408       -0.57405251632109
C            2.54895302275759       -1.24733678939278       -0.68403530840744
C            1.22298602948539       -1.11406936902235       -0.24066808598753
N            0.44650247469726       -2.13586920520719       -0.08785582730239
C           -0.82036887371516       -2.27632793984849        0.28263876932649
N           -1.08336159235058       -3.33826010867620        1.07801534183037
N           -1.86119043734217       -1.64698004607898       -0.20901558514284
C           -2.10134268199066       -0.39514042158657       -0.44939666006969
N           -3.24345364370305        0.01136505042646       -1.01879240540605
C           -3.29660466273425        1.31752409937022       -0.76948217900656
N           -2.27272361373520        1.85434648474206       -0.11153944308057
C           -1.40844732696996        0.83843299507865        0.06904427352227
H            2.59573447858191        1.85996837619229        0.49115246031315
H            5.12109909483394       -0.50862307332823       -1.05404454502141
H            4.94158140606919        1.04538405760594       -0.31263827153688
H            2.96174004913393       -2.14788219561584       -1.09342945141938
H           -0.34847995571706       -4.00076908903167        1.25473582576451
H           -2.04132478546367       -3.62877669024398        1.17308310708951
H           -4.13253686067987        1.91537377516283       -1.08476049298044
