24
 energy: -43.751867582932 gnorm: 0.000395784336 xtb: 6.6.1 (8d0f1dd)
N           -0.06276373182344       -3.43226830000753        0.87821896235839
C           -0.18231869445669       -2.31189196645996        0.66888151320765
C           -0.27567646775564       -0.90547455605601        0.47434670237159
C            0.96527015726762       -0.25072118532078        0.33465853743864
C            2.15636318051942       -0.92469148886623        0.16835821118670
C            3.15322733057764       -0.02082193796359       -0.30779784093567
N            4.41196950079511       -0.37835859963362       -0.61418713633974
C            2.59367196478042        1.24777866572155       -0.41505263507175
C            1.27147427503690        1.20235834875429        0.05847440442025
N            0.63362439836934        2.27488752584333        0.40523280765350
C           -0.59544187592658        2.54212153821697        0.77540918278135
N           -1.71357135371188        2.07144737149369        0.31887408482032
C           -2.10023624470633        0.90197097250475       -0.11325503968205
C           -3.33580161972312        0.64405902218844       -0.72220122828774
C           -3.54208962966810       -0.72681573135409       -0.61553444984346
N           -2.52371912243446       -1.37451345659608       -0.04292719908552
C           -1.56872048200432       -0.46631849257550        0.21076882443051
H            2.30854566750570       -1.97881190678312        0.31081047496873
H            5.07097284093396        0.30945159030876       -0.93179256567436
H            4.73596928511400       -1.30770608020773       -0.41458164450510
H            3.09726641984617        2.14562701942464       -0.71442033000374
H           -0.69195333146057        3.43239116523363        1.39373339095894
H           -4.01372083272793        1.37717449598957       -1.10966186869382
H           -4.40916198114686       -1.27945479565656       -0.93158831237340
