24
 energy: -38.958157612524 gnorm: 0.000661592032 xtb: 6.6.1 (8d0f1dd)
N            4.44529913279048       -0.78246706013183       -0.08155726091117
C            3.12704289616208       -0.48724682405755       -0.02938086731136
C            2.05341870913611       -1.39748856063330       -0.02952739845302
C            0.88436307027730       -0.63620273593223       -0.02258815410027
N           -0.28857589901177       -1.24509679301358       -0.01659715867970
C           -1.51827853019124       -0.85007588359247       -0.00654242855016
C           -2.54065420127927       -1.84220958071043       -0.00139304606112
C           -3.77000622276826       -1.23074204156830        0.01067499313178
C           -3.58754916261957        0.16224339078401        0.01387536025843
C           -2.23021441304302        0.47351960619671        0.00348595742005
C           -1.80953567985376        1.80093211217520        0.00421095636727
C           -0.58469188823952        2.44488541239211       -0.00371846009865
C            0.73538910140586        2.01141313821375       -0.01424244320584
C            1.35408208436001        0.77275614628637       -0.02056232449390
N            2.70429911602114        0.78330935936391       -0.02328839880845
H            4.74594873020705       -1.71637121910842        0.13301729064708
H            5.09024762235373       -0.02653920712642        0.07065063694787
H            2.11193376011304       -2.46746015221359       -0.03414501144773
H           -2.33665622684671       -2.89562902606512       -0.00695989278193
H           -4.72464234669934       -1.72658923741034        0.01689626727547
H           -4.38209760548968        0.88795165074347        0.02295712005699
H           -2.65180529272427        2.48883610554964        0.01261570740549
H           -0.67218600293791        3.52631877100937       -0.00138700910043
H            1.47042423047748        2.80967976324908       -0.01855946440672
