24
 energy: -42.989944119083 gnorm: 0.000974388226 xtb: 6.6.1 (8d0f1dd)
N            4.64678420076485       -1.16225120286911        0.01255150325793
C            3.40342447569167       -0.67263575238433        0.00381828846512
N            3.15314810435439        0.64895660892750       -0.00228614867815
C            1.81753405583309        0.75613069643152        0.00354088524708
C            1.27949693180392        2.03864164392307        0.00261054026419
C            0.00016160306262        2.56692620750448        0.00286784101320
C           -1.27924957609237        2.03883484055853       -0.00021908010959
C           -1.81748150661814        0.75640514504688       -0.00046415822552
N           -3.15309541208023        0.64943305208328       -0.00922747719563
C           -3.40358447660313       -0.67212164089334       -0.00366438252388
N           -4.64703494772471       -1.16154773303474        0.00234232092472
N           -2.31912583742229       -1.46290885926453        0.00840178230826
C           -1.27166272025922       -0.62527713326029        0.01010979188893
C           -0.00013779705425       -1.17028205572374        0.01829487172176
C            1.27148455162071       -0.62546922581721        0.01290383444530
N            2.31882203053876       -1.46325925983722        0.01349586776459
H            5.42288159224407       -0.52896326949578       -0.04460998652591
H            4.78316896935127       -2.15522957647883       -0.03063159554061
H            2.07197061984777        2.77999541998387        0.00069135236182
H            0.00024298421943        3.65253356967765        0.00341102504557
H           -2.07160514556659        2.78030832117342       -0.00389273712636
H           -4.78347605742292       -2.15450533276748       -0.04114232183151
H           -5.42290814681040       -0.52814200699293       -0.05653487429524
H           -0.00022842877831       -2.25483390119070        0.02629630504394
