30
 energy: -59.697396664821 gnorm: 0.000718584429 xtb: 6.6.1 (8d0f1dd)
N            1.98302788602266        4.04610561484054        0.94826769557216
C            1.49242613278902        3.06366786751383        0.60735119198013
C            0.85063655123241        1.88259445467153        0.18154935818434
C            1.57382475515828        0.70883296052936        0.28863765990091
C            2.91984791790771        0.69099721890142        0.69457565522107
C            3.51926973044777       -0.47988154086635        0.24917539215379
N            4.80602338075179       -0.83402060612349        0.36160381299037
C            2.51751121084488       -1.29851033981377       -0.37933757025397
C            2.78706008544799       -2.56105552885615       -0.90355103640055
N            3.10221719281364       -3.58293407372427       -1.32724587635911
C            1.27495765494739       -0.66254487131332       -0.27702384647273
N            0.17078749155931       -1.33021939819437       -0.47352195642344
C           -1.09172937372591       -1.10197304174124       -0.29721315357521
N           -1.92394321631048       -2.14067483518953       -0.15268405943530
C           -3.12190781495259       -1.65899105185674        0.18282354757613
N           -4.15834209227858       -2.46041266521534        0.42484014454927
C           -3.14432838332569       -0.22539581931890        0.24411266973619
C           -4.25988665548994        0.54553169257098        0.55296438709456
N           -5.20565344573052        1.14354782396458        0.82062893521715
C           -1.86297291055394        0.18988405863144       -0.11862447774095
N           -1.51653127394201        1.42488143148517       -0.35385490187918
C           -0.43442971113887        2.12226901666729       -0.45755674255049
N           -0.54573232438507        3.28119491372039       -1.14859894591233
H            3.42521156862105        1.49986495951050        1.18843678812987
H            5.45431454489109       -0.25205388264350        0.86160925990447
H            5.11891891103475       -1.71199506621002       -0.01628295408691
H           -5.04997033416058       -2.07966122413996        0.69067658569348
H           -4.03358525793203       -3.45322873168029        0.32642711497394
H           -1.46113589396890        3.54737532674725       -1.47138538606050
H            0.16972242732621        3.98545859103227       -1.08226367632143
