24
 energy: -42.959543978970 gnorm: 0.000544840782 xtb: 6.6.1 (8d0f1dd)
N            4.40304384216522       -0.89797785771940       -0.24120358439993
C            3.13084976687345       -0.48250283207553       -0.13419688620049
C            2.61108188133462        0.75575276428305       -0.57579343798974
C            1.28976608452020        0.78560662093216       -0.17394078679332
N            0.54594003563655        1.86647902706212       -0.11384100530135
C           -0.72100856512738        2.04238810550744        0.13814371374558
N           -1.06747401167514        3.19743111102600        0.76777573143660
N           -1.75524798860114        1.33705880840933       -0.34041549912769
C           -2.00164369618641        0.07950343871962       -0.34095644605558
C           -3.22898829004229       -0.45967460765736       -0.82274899169639
C           -3.39226650772704       -1.70198043190239       -0.26758296531781
C           -2.24417699607934       -2.07528765761056        0.47389820174047
C           -1.30069058187247       -1.06922997315725        0.39664126635892
N           -0.03619107103428       -1.26439283408646        0.70083757305069
C            1.04375440677096       -0.60846399421826        0.41133162855039
N            2.21597441513454       -1.25649111866706        0.46791027961332
H            5.05857883228892       -0.39673809786079       -0.81214559367051
H            4.62400479023559       -1.82440941289240        0.07880253447523
H            3.16045520991693        1.54336019181925       -1.05214844539336
H           -0.34755063523675        3.88580653093095        0.90324642046890
H           -2.02156020457701        3.50535134098502        0.69725924339523
H           -3.93698598112863        0.08841793399754       -1.41385039494457
H           -4.26184672975036       -2.32536650286525       -0.38591881459975
H           -2.09143578673841       -3.02202316435959        0.95470262305484
