25
 energy: -52.288277452996 gnorm: 0.000715880573 xtb: 6.6.1 (8d0f1dd)
N            4.29808571055354        1.57095579978748        0.99659290259006
C            3.26526169020713        1.17725814976001        0.68829329882660
C            1.97639018793169        0.77604534564670        0.27053582669207
C            1.16075036868122        1.83112294340482       -0.30122999592357
N            1.80658578486801        2.78173609311894       -1.00164281180941
N           -0.10257005809706        2.00831818542505       -0.10313408790622
C           -1.19007711869897        1.34611464569311        0.13242453017636
N           -2.29911162106329        1.94113902411070        0.55702126146639
C           -3.27539147846788        1.03843789939884        0.34473440859405
N           -4.54624855208486        1.27883519709173        0.63201870894850
N           -2.88274274402170       -0.14379870363419       -0.18896444003636
C           -1.56181986400001       -0.06239360642982       -0.26871196386219
C           -0.77065688444662       -1.18821072628171       -0.50266312974212
C           -1.49209123846952       -2.34347101104580       -0.91046110100893
N           -2.08388293077291       -3.24910373687314       -1.28630666388853
C            0.56662354481822       -1.42456056062998       -0.16281930872445
N            1.00004032206643       -2.68319926706622       -0.11023286785827
C            2.22440193411926       -2.62324438537515        0.43370611853558
N            2.67109978551874       -1.42193729882476        0.73519247167461
C            1.69397518787872       -0.56864147722138        0.34227625724742
H            2.81228044969220        2.79665218445854       -1.03768465966135
H            1.28786131216708        3.58657259609745       -1.31211368808491
H           -4.79948721510498        2.15248914534681        1.05869647453804
H           -5.23386870872542        0.57534970584695        0.42537743911657
H            2.80291185215470       -3.51043263767762        0.61185085380534
