30
 energy: -45.276955377322 gnorm: 0.000694849197 xtb: 6.6.1 (8d0f1dd)
N            4.28953281565472       -0.60480433110354        0.47253490000734
C            3.15528342740725        0.14491024177568        0.25834816706565
C            3.12915904818992        1.53468922025106        0.20738299222335
C            1.83904098912313        1.93008232709976       -0.10772218793950
C            0.99209469261942        0.80762287960140       -0.20795965278790
C           -0.38968574516105        0.97318950042691       -0.42734103460747
N           -0.76417796352191        2.18677043567134       -0.92903872265674
C           -1.47652672040525        0.13628082702420       -0.05537646579054
C           -2.74481370918414        0.66053618815567        0.26864644758494
N           -3.10781717273857        1.99547964013367        0.41151998159120
C           -3.65461925287282       -0.39893466589286        0.46888426938971
C           -2.99351178483417       -1.57533649691307        0.24045551599908
C           -1.62508481215342       -1.31101608463391       -0.04715877412485
C           -0.78778079236876       -2.38110846574624       -0.30980613906039
C            0.58396985396245       -2.55848468701990       -0.42041830772990
C            1.66506324589524       -1.72029029911293       -0.21238961239071
C            1.84199352198544       -0.35899971160912       -0.00615724665842
H            4.16406349368481       -1.52259521662993        0.86798748627338
H            5.06687318776160       -0.09535899428163        0.86215408793913
H            3.96518349839312        2.18641093643592        0.38732392962227
H            1.53421171258656        2.96114157672049       -0.15684025539862
H           -1.71132447356088        2.29080434129800       -1.25127623208948
H           -0.06287475039606        2.76195926564162       -1.35936634466844
H           -3.96198855714490        2.10950218177620        0.94065227205271
H           -2.36890024221942        2.59952739403266        0.74614150236190
H           -4.68607647518794       -0.27650746168065        0.74786291190799
H           -3.41665551644375       -2.56191716730661        0.29868996774507
H           -1.33657840165735       -3.31743851284268       -0.37364510019238
H            0.86862077394905       -3.58831163851673       -0.61144843829687
H            2.60643157203619       -2.26338215235539       -0.21072874727255
