23
 energy: -48.058269834039 gnorm: 0.000800145899 xtb: 6.6.1 (8d0f1dd)
N            4.17994407064048       -1.17521930614806        1.93154724191055
C            3.38610588145937       -0.68413581422803        1.25892812371036
C            2.46405786698832       -0.02845615667965        0.45104850426763
C            2.68227623991244        1.24703991484754       -0.17280959544415
N            3.80095802729493        1.95825542152688       -0.08220904410040
N            1.63726291301902        1.68616933839691       -0.89223543564121
C            0.65520439562840        0.80785310548407       -0.71949348228352
N           -0.59070611543007        1.07901247295656       -0.80545524723723
C           -1.71171371489956        0.51054865691190       -0.44610027328199
N           -2.72471972718893        1.23397790658340       -0.02111039868007
C           -3.68440306040601        0.34016643890353        0.34790258461101
N           -4.85888545951444        0.75221324392394        0.80559665786261
N           -3.36102498912737       -0.95299489535965        0.24759258149096
C           -2.13562299792941       -0.97307746868246       -0.26611872858486
N           -1.48167599651694       -2.05106492907754       -0.53187102349519
C           -0.22231506913213       -2.22616707559306       -0.83748052183516
N            0.83240899258217       -1.66098174540143       -0.32137855756906
C            1.24431503223878       -0.47646783460243       -0.06195826458890
H            4.55144327102747        1.65604726675039        0.51544890425509
H            3.87121448783291        2.82051230557252       -0.59500413005279
H           -5.04649085542502        1.73808768423392        0.85200962792671
H           -5.55502480099188        0.07266227293675        1.05768163205647
H           -0.01276246056153       -3.09705399195652       -1.45392898189636
