25
 energy: -48.271427549042 gnorm: 0.000836505966 xtb: 6.6.1 (8d0f1dd)
N            3.36058909168186       -2.30728896588030        0.25974073989519
C            2.67035573847206       -1.38919953083539        0.19931042184261
C            2.01214597107241       -0.16346639989833        0.08206833982590
C            2.73500208663369        1.00042047230894       -0.37345427124475
N            4.03181015114292        0.97869689717194       -0.70475122523772
C            1.86412331022288        2.08080722295522       -0.39899006463180
C            0.61273520421696        1.67352684992647        0.08890652019020
N           -0.26075360363115        2.52700033630863        0.53056719670851
C           -1.51695881474207        2.47861053099482        0.87875509241141
N           -2.48133242486417        1.81355140671354        0.31354486416745
C           -2.56564807319227        0.62064369449984       -0.19433753083089
C           -3.68691219965654        0.11200429908069       -0.87382639554459
C           -3.56805564215944       -1.26723237796881       -0.83203329239847
N           -2.43247410169748       -1.68686341003034       -0.25122053044353
C           -1.73197972871917       -0.60372483923198        0.08746673640438
C           -0.37121996370106       -0.74700817629576        0.37861591631506
C            0.00368283450331       -2.10967906560336        0.55287018183214
N            0.28251079507341       -3.19918333314186        0.76893123491764
C            0.67355220660275        0.18347321955644        0.28433876554562
H            4.48932433806566        1.80947989801386       -1.03506018462906
H            4.56267502339022        0.13077834147897       -0.59380621609670
H            2.11274847215481        3.09110403943017       -0.65709842928004
H           -1.83170825698273        3.25297402399207        1.57353789577942
H           -4.50677317519874        0.68772896662955       -1.25181320432731
H           -4.26808667688810       -1.99460439877480       -1.20264231646938
