23
 energy: -39.240493859264 gnorm: 0.000491188838 xtb: 6.6.1 (8d0f1dd)
N            0.04694228135653       -3.12814721180785        0.74249962917972
C            0.02616219654395       -1.92245057099655        0.11951290465707
N           -1.17156603334865       -1.48459203293537       -0.23820033234105
C           -1.71111364840851       -0.30758704326847       -0.28285662028680
C           -3.03957307401414       -0.12025511966102       -0.73354354873744
C           -3.47735955360855        1.11766389588806       -0.30808478470790
C           -2.43955861792362        1.78537500719615        0.35785045086546
C           -1.29013254616147        0.99182914953319        0.34185983257937
C           -0.02878152151319        1.49605908366010        0.61071501249216
C            1.23320118185328        1.03700365878810        0.26101431669412
C            2.36578158621785        1.85556714547155        0.16756866370757
C            3.32560455345303        1.12796128207186       -0.53950782005129
N            2.92514771825753       -0.09816798149407       -0.86286503181364
C            1.69003219177093       -0.25130307501650       -0.34932781082461
N            1.19296015421718       -1.44668027419433       -0.24853733651436
H           -0.80700072252366       -3.65765182543217        0.77546742360114
H            0.92395933049947       -3.61971425681096        0.76810607490636
H           -3.61418415252752       -0.87120048858969       -1.23972736721802
H           -4.46357779772959        1.51793728666510       -0.46368037927668
H           -2.49676883120403        2.78003648209599        0.76121342050579
H           -0.03516217302748        2.51394448356711        0.99283063181102
H            2.45613955547238        2.86677326801260        0.51555662643279
H            4.30781090444827        1.46211502365681       -0.82513860036058
