28
 energy: -55.465417475702 gnorm: 0.000657613437 xtb: 6.6.1 (8d0f1dd)
N           -3.51934467844325        2.61363620970423       -0.49542297906778
C           -2.89425818452661        1.66463955600144       -0.31350775153386
C           -2.30264724180406        0.43725098851183       -0.03059377940956
C           -3.04217788042663       -0.61493902820510        0.63764449616414
N           -4.31428379988465       -0.51385081282660        1.01954895565217
N           -2.31265089868695       -1.69997004599489        0.84129047664727
C           -1.10340483810648       -1.47315675058616        0.29046056171008
N           -0.32382854120964       -2.46522557322573        0.04990488423535
C            0.91058442546308       -2.58438041374703       -0.41937147911736
N            1.10739680846703       -3.61415327371481       -1.27559115032613
N            1.98442648964759       -1.96815538478921        0.01321339998660
C            2.21475233807893       -0.71143061127022        0.29581535146597
C            3.40007242033756       -0.22289098621802        0.82690604539130
C            3.39870889375497        1.16123411763604        0.58343801820927
N            4.35895648867500        2.04596749478863        0.86860569618835
N            2.26156208287741        1.58406465547138       -0.02124768484640
C            1.46652166957461        0.52549909942559       -0.14832240306569
C            0.12384493169656        0.73767115657359       -0.47780909562299
C           -0.13497080582975        2.05716834113944       -0.93591737576807
N           -0.33420021029927        3.09889736387366       -1.37060546836570
C           -1.00498570809479       -0.04356862486359       -0.18175713207242
H           -4.74231919293577       -1.28495006354497        1.50124251052775
H           -4.84146065170559        0.31653931534946        0.80953471573641
H            2.05273479464833       -3.90420275734993       -1.45645268253251
H            0.35946975956347       -4.27370660854604       -1.40318244532373
H            4.19632566431058       -0.79932538438711        1.25018990809209
H            4.20792297759830        3.00757452445152        0.61773252074628
H            5.17549858766018        1.77795797343327        1.38661299132768
