27
 energy: -51.729310277603 gnorm: 0.000642321178 xtb: 6.6.1 (8d0f1dd)
N           -3.75461622160918        2.24464603914070        0.00958167913184
C           -2.69679594185366        1.79859512530322        0.00567613966907
C           -1.35706404465527        1.31987788849769        0.00330435543923
C           -0.36871424937705        2.31942504641619        0.00423868764720
N           -0.81923693638109        3.60179276032712        0.00916468448261
C            1.04255285488407        2.21957567369634        0.00005187385558
C            2.00464133991157        1.24741884745847       -0.00239494756563
N            3.28289102860889        1.72587906582571       -0.00505781708320
C            4.09794985679720        0.68984383193457       -0.00525260511109
C            3.41533184989580       -0.53587224612837       -0.00281205536465
C            2.05489807720554       -0.23745107190850       -0.00137613996503
C            1.05814564136918       -1.22032256059143       -0.00049906369186
C            1.54145279541240       -2.55939566333795       -0.00063498663504
N            1.95650235547226       -3.62805940182995        0.00228139131763
C           -0.33344325522488       -1.16569094411648       -0.00160040977769
N           -1.00079156248534       -2.33083859684659       -0.00378134876201
C           -2.29785695556252       -2.00337554270146       -0.00450408899744
N           -3.27414702478393       -2.90748123723539       -0.00722964214338
N           -2.54491975823914       -0.67570929950383       -0.00233259798668
C           -1.34956160925999       -0.08586838874678       -0.00051557621295
H           -1.80609670224069        3.79724816183101        0.01135023320197
H           -0.17011087269351        4.36768343547386        0.00880839086739
H            1.52178506429476        3.19581589880627       -0.00088706454221
H            5.16368967565702        0.83514118867191       -0.00708208464157
H            3.85523742215393       -1.51359843723769       -0.00252719053212
H           -3.03791693133519       -3.88314799971762       -0.00833399531080
H           -4.22889124006118       -2.59750006238100       -0.00731233028921
