26
 energy: -46.405808772183 gnorm: 0.000458631154 xtb: 6.6.1 (8d0f1dd)
N           -4.70630713071432       -1.33637315728268       -0.25632258961622
C           -3.43031847341035       -0.91245391047792       -0.16059502779647
C           -2.32324834269784       -1.68228999157044        0.26397776038709
C           -1.21920542267546       -0.84347161495134        0.24704590494301
N           -0.01796082850071       -1.32086083083636        0.51396601262439
C            1.18640624665129       -0.86177564214519        0.33367417735489
C            2.32488134906266       -1.66779010550371        0.40838175286212
C            3.35254460795266       -0.95655493814189       -0.22291648401823
N            4.59836702469840       -1.39018364843346       -0.48206147123205
N            2.98321999737935        0.28564899010315       -0.62080617475762
C            1.72464625784326        0.45523011422664       -0.22580565613478
N            1.21768536306558        1.64641634797843       -0.17281773894864
C            0.06334671871662        2.21226334803217        0.04392935031119
N            0.15099056900730        3.48757607996639        0.51475717713609
C           -1.24643206454474        1.74615976038480       -0.25238411425445
C           -1.77994715638139        0.49003074525074       -0.18316970781989
N           -3.10377729989044        0.35255431163902       -0.43415044066730
H           -5.37111164882580       -0.72083187035750       -0.69094425081821
H           -4.90795155508562       -2.31887652052468       -0.21381047390217
H           -2.32748522663618       -2.72156477739710        0.52421220769917
H            2.37624450657653       -2.66738203141245        0.78973114121097
H            4.93892649798547       -2.23661977858003       -0.06443158279439
H            5.24342059750070       -0.74437372386092       -0.90128020293627
H           -0.65690462042484        4.08310297557335        0.52094859287939
H            1.06558990883775        3.89860036002577        0.58651592769551
H           -1.97359487419026        2.51685318009467       -0.47875264700700
