31
 energy: -59.412869083223 gnorm: 0.000894082535 xtb: 6.6.1 (8d0f1dd)
N            4.79093903953506        1.93806572327400        1.23656597311339
C            4.09184199657146        1.11196548269157        0.84449865801449
C            3.29196807331575        0.07279146454574        0.37716346953836
C            3.74008697045970       -1.26912076787054        0.19084982761355
N            4.98011881497689       -1.69540084800240        0.47179176803211
C            2.68642891494275       -2.03514287678113       -0.32260957339725
C            1.54024108459957       -1.24291323370399       -0.41934588101218
N            0.36963046090502       -1.77008390225017       -0.65480060339662
C           -0.86633810036674       -1.38887220091513       -0.45091775581781
C           -1.88341077401411       -2.34133311144777       -0.54575547434661
C           -3.06845000742946       -1.82935683394233       -0.00319713719106
N           -4.23834719833221       -2.47127422658106        0.12935182044545
C           -2.83562620648243       -0.48646706331798        0.40378748928861
C           -3.83231696629131        0.26128609654983        1.02827558809376
N           -4.72552963822573        0.74818177327061        1.56736195021206
C           -1.51623947278036       -0.12237158408013        0.05418242076811
C           -1.10295609450604        1.19593466662992       -0.03746815023692
C           -2.04305454905043        2.21041142751744        0.24892145460863
N           -2.73889970862274        3.10573187308994        0.43721417383936
C            0.15689903357598        1.73067398933897       -0.50738099427736
N            0.10901166636016        2.90870598657774       -1.17672237389181
N            1.35084368814358        1.28966167053466       -0.25296807195764
C            1.95936822758580        0.16058979223124       -0.05556826348557
H            5.65564955480716       -1.05699962959177        0.85535729209489
H            5.24786930772616       -2.64595165111494        0.28906399342675
H            2.72368165925013       -3.08316619071947       -0.54780402356288
H           -1.73474155286638       -3.34268591347071       -0.90011830334901
H           -5.00806211461356       -2.01451551469461        0.58878891573034
H           -4.33877031626564       -3.42190831804501       -0.17740482796341
H            0.98133492620323        3.38315907799961       -1.34326381206677
H           -0.74232441671464        3.44557611208028       -1.19489782326596
