25
 energy: -43.479849395472 gnorm: 0.000459177696 xtb: 6.6.1 (8d0f1dd)
N           -2.88828001594433        2.93606523092081        0.00724392816423
C           -2.46976411212613        1.86430561567638        0.00432826604255
C           -2.03776701735943        0.53820402474510        0.00236649145982
C           -2.93164380614312       -0.57284045987088        0.00165891621046
N           -4.27307638862346       -0.47574529643027       -0.00086837066307
C           -2.16207059804668       -1.73317381487227        0.00038863255850
C           -0.79465935832809       -1.40948541964114        0.00046950081152
N            0.06019237210487       -2.40317378259636       -0.00006778826397
C            1.35950888094760       -2.53736190920635       -0.00006793379093
C            2.46897611074331       -1.68853470522375        0.00012276571185
C            2.64638104282588       -0.31478738432334        0.00073700980169
C            3.92500707975135        0.27596997688955        0.00081895480355
C            3.73383259362979        1.64944538030798        0.00166273983240
N            2.44070751037184        1.98258381093879        0.00215578193737
C            1.72552239574238        0.84430670455907        0.00163288426929
C            0.34709051675661        0.98009286656661        0.00204434905816
C           -0.70456235843593        0.08044637441694        0.00167505140823
H           -4.84380051094797       -1.30106025389793        0.00866103799979
H           -4.71241050256444        0.42805376215885        0.00929327137621
H           -2.53515420940386       -2.73909781484160       -0.00044260283410
H            1.62939570516038       -3.59444255799074       -0.00038027519091
H            3.40956225673469       -2.23199480248745       -0.00024303242149
H            4.86271332348106       -0.24584955364002        0.00032090964213
H            4.48706387234946        2.41731024211110        0.00194689665407
H            0.04870337732424        2.02519057613096        0.00273962502266
