25
 energy: -42.692606178133 gnorm: 0.000388558522 xtb: 6.6.1 (8d0f1dd)
N            4.15536379036621        1.17041235522954       -0.06721294233607
C            3.20665109830613        0.21304350563253       -0.06473992969559
N            3.55330163517733       -1.08392886682728       -0.20846692773194
C            2.41728631304299       -1.76419211718569       -0.24100398922122
C            1.26165311369603       -0.95230845414803       -0.15032091871659
C           -0.00010116985533       -1.50615170289478        0.00304505813021
C           -1.26180544261893       -0.95100644028648        0.15215637629057
C           -2.41751948873436       -1.76204137745806        0.24908424481133
N           -3.55346632787469       -1.08191677104617        0.21132246655813
C           -3.20667042240034        0.21387005115086        0.05763352504413
N           -4.15527963791261        1.17134341858740        0.05275523981869
C           -1.79406042601462        0.39575922794857        0.01356680179336
C           -1.18347929798018        1.60772689842413       -0.28509692460281
N            0.00009367031037        2.06902555607551       -0.01069048323339
C            1.18361719223978        1.60971613616718        0.26726756678689
C            1.79406061297315        0.39542517599894       -0.02207350080094
H            3.92923868965855        2.09975299125783        0.24100618772551
H            5.10975067152907        0.86034685680235       -0.00198897496133
H            2.43282383535413       -2.83768757575980       -0.30962087460974
H           -0.00016467789137       -2.59250121758911        0.00721730173522
H           -2.43317996069761       -2.83497464707518        0.32594782834574
H           -5.10969584047514        0.86088235287940       -0.01010646520408
H           -3.92905400605201        2.09824395877662       -0.26264914006519
H           -1.82132405015234        2.36932050325716       -0.73845825068502
H            1.82154501240560        2.37470926328262        0.71474012292418
