26
 energy: -47.203862073512 gnorm: 0.000896636551 xtb: 6.6.1 (8d0f1dd)
N           -4.30316308767995        1.68711628443271       -0.00641228631202
C           -3.43622619880079        0.92871265804138       -0.00505667280870
C           -2.40518863998585       -0.00214351795771       -0.00122491125450
C           -1.02285250329489        0.23855290250232       -0.00112621370984
C           -0.53453326991130        1.53973874498919       -0.00074684631793
C            0.72234371919691        2.13679078318260       -0.00340838650687
N            0.71582372026061        3.50164146874441       -0.01597592876593
C            2.02086898678509        1.57210763292218       -0.00993061385034
C            2.53633251175529        0.30827310979038       -0.00915409260133
N            3.89939139672582        0.22872266683185       -0.01425320576794
C            4.22399219660249       -1.05043948750781       -0.00805277218554
C            3.10975485718500       -1.90110138065818        0.00150539680160
C            1.98083835399307       -1.08502130989884        0.00039019136125
N            0.77629161540499       -1.61204386063560        0.00524951808697
C           -0.42682433284484       -1.14313355286611        0.00316963098492
N           -1.41884180957502       -2.06161770145009        0.00560987770700
C           -2.57945044294819       -1.42574776252312        0.00238375923147
N           -3.75262999197885       -2.06811280043023        0.00372047028272
H           -1.34149872804158        2.27136432365236        0.00088570457403
H           -0.14923274596525        4.00813951098712        0.04034070717323
H            1.57560842873625        4.01493527669609        0.03939756963437
H            2.81368212683567        2.31552807074720       -0.01634998386796
H            5.25994495498163       -1.34314603776094       -0.01053025216134
H            3.10647340107556       -2.97204040054809        0.00785570559359
H           -3.75129142546640       -3.07245119430125        0.00324772646735
H           -4.61882467684551       -1.55997747058183       -0.00286490788815
