24
 energy: -48.552735121194 gnorm: 0.000662044364 xtb: 6.6.1 (8d0f1dd)
N            3.39346154099433        2.28928341549999       -0.38758729083949
C            2.70131362939294        1.37771060211161       -0.27721091352418
C            2.03246651444274        0.16272480856776       -0.11071139203533
C            2.74640408914757       -0.99740083707123        0.37919802709540
N            4.04324019466132       -0.97813008000745        0.69728814411857
C            1.86423874685732       -2.06727927222271        0.44748378533552
C            0.61965881853419       -1.66618278891187       -0.05951869803408
N           -0.26046623126294       -2.50957975142574       -0.49490461239794
C           -1.50237105386508       -2.44413862454970       -0.89022093648849
N           -2.47568131454612       -1.79031672476549       -0.33307586034454
C           -2.56045171880172       -0.61370579701349        0.19790438399037
N           -3.64281217825224       -0.18747851204577        0.86285771321385
C           -3.53121243368651        1.13447895024873        0.88096449025786
N           -2.43324856409817        1.65786720702842        0.32739348782763
C           -1.70615568903962        0.60817246092192       -0.06701847497064
C           -0.35010097532249        0.75990295041524       -0.37399714866547
C            0.02064115365341        2.12523774079843       -0.52807059322180
N            0.28667002666782        3.22233707484144       -0.72036005879372
C            0.69222389993252       -0.17412228971328       -0.29198361822669
H            4.58167506153348       -0.13842155089282        0.55919848243896
H            4.49299303488188       -1.79796447592037        1.06508839326290
H            2.10422717964230       -3.07063430987904        0.73797748533025
H           -1.79478096327017       -3.18402772718764       -1.63029167866426
H           -4.28492086080220        1.76027544037010        1.32238334603678
