24
 energy: -38.968742757123 gnorm: 0.000753624897 xtb: 6.6.1 (8d0f1dd)
N            3.93009978033187        0.90770294941531        0.02708369319742
C            2.89460295759257        0.04172851793018       -0.01567476077804
N            3.11500133574954       -1.27472369854542       -0.20550989119046
C            1.92137128541156       -1.84629304715119       -0.27574713298778
C            0.84528933842661       -0.93421653493913       -0.17493056632401
C           -0.46059473607486       -1.36995382351286       -0.02436969962348
C           -1.68549452737522       -0.72937579628815        0.12746440869236
C           -2.88057015789833       -1.48058968231384        0.25144861562317
C           -3.97346758794468       -0.63382448049248        0.19142986138890
C           -3.50692644558324        0.66213143303503       -0.01633274734851
C           -2.10292522569852        0.65455713998850       -0.03491826783213
C           -1.35104317066024        1.79957641457497       -0.33170003329375
N           -0.14914160479885        2.13426030173583       -0.00490361364309
C            0.98312837399209        1.59640409541567        0.33750093175385
C            1.50767077133372        0.35667897154039        0.00947091831076
H            3.78880249466282        1.83490957937095        0.38851417832303
H            4.84852302766408        0.50397823962083        0.09636953617961
H            1.84014342226680       -2.91277420480005       -0.38830004859528
H           -0.54395601501476       -2.45387760175654       -0.02213972683215
H           -2.91596615061281       -2.55065440881951        0.35216192853755
H           -5.00521859912503       -0.92562370815052        0.26639588002576
H           -4.11469411797082        1.54376812761301       -0.11693770424186
H           -1.89208404711484        2.60352350085413       -0.83177038554739
H            1.64165073404053        2.29755792267483        0.85215038180550
