19
 energy: -36.329321901733 gnorm: 0.000800829887 xtb: 6.6.1 (8d0f1dd)
C            0.00015981203868        2.25345629603417        0.50915246935722
N           -1.16525565426179        1.82256922100398        0.10289457673290
C           -1.68178392851179        0.66203729879068       -0.07047995591565
C           -2.96637306543720        0.38014973235406       -0.57368327929609
C           -3.26127271239823       -0.90759699081931       -0.16547438718437
N           -2.23207227727362       -1.55002231881961        0.41471876781100
C           -1.19746204636027       -0.72722375017214        0.44933599855771
N            0.00319160877118       -1.17574136038566        0.64262755296786
C            1.20183328670000       -0.72539861617909        0.44116796427309
N            2.23735028101226       -1.54674549295995        0.39936739138735
C            3.26177482091447       -0.90269781172843       -0.18744345815182
C            2.96233740246309        0.38474503193789       -0.59327543568587
C            1.68066592110016        0.66463870972851       -0.08158226203533
N            1.16356196936345        1.82443863805317        0.09515808180464
H            0.00117306678853        3.19812776801203        1.04230526613481
H           -3.61960818101495        1.07672851691896       -1.06004084048175
H           -4.20122339191605       -1.41973840636747       -0.27518929456957
H            4.20170486523489       -1.41346870291773       -0.30352294745557
H            3.61134432198736        1.08241426071596       -1.08369824035069
