25
 energy: -42.684565710907 gnorm: 0.000412198509 xtb: 6.6.1 (8d0f1dd)
N            4.53032543844737       -0.85608286382323        0.12391790454537
C            3.23334042699851       -0.49071916609787        0.05683058059400
C            2.70691518779317        0.79307129005111        0.32700314147110
C            1.34979545437717        0.72429469384482        0.06041902369749
N            0.59543836680615        1.80456404477351       -0.02664412632133
C           -0.66576842963810        2.08567672435563       -0.06854554247609
N           -0.93078043086468        3.39189522811072       -0.37687799352171
C           -1.82359823521365        1.32882589077924        0.31504639321849
C           -2.10931309543131        0.00105195184061        0.28449465179963
N           -3.40278800045953       -0.34921944630430        0.59682391818785
C           -3.53291819077913       -1.62348862389209        0.31329614149414
C           -2.34161558210603       -2.20477214599173       -0.16521512106956
C           -1.37831797309587       -1.20508306491100       -0.17398713941590
C           -0.03032538466526       -1.45566557285363       -0.45155672967556
C            1.10990881422559       -0.70635848832849       -0.30234113651624
N            2.29770313431933       -1.35166979356712       -0.35407943490989
H            4.74126157137651       -1.83098257743747       -0.00007340945979
H            5.18077151059956       -0.28310645292029        0.63071020884247
H            3.25792806355290        1.65844385312672        0.63628860596242
H           -1.86815289781947        3.68032743120062       -0.59000270395750
H           -0.16533132224333        3.94609323460474       -0.71970109197345
H           -2.66349747664609        1.93752302036496        0.63241891505946
H           -4.47826776934886       -2.11949497204153        0.45316716643827
H           -2.20056165713000       -3.23196068591904       -0.44157132716807
H            0.18211806814500       -2.49124578666506       -0.69823381034539
