26
 energy: -52.012116449315 gnorm: 0.000728718693 xtb: 6.6.1 (8d0f1dd)
N            3.28358630981971        2.72821126359025        0.31197701410755
C            2.72605139983046        1.72601969053669        0.21991629302104
C            2.21721626778205        0.44048857361996        0.05530962722754
C            3.01738635527659       -0.61454539481503       -0.54115886420405
N            4.26421083420672       -0.45705826101061       -0.97778812083943
N            2.36532225376613       -1.76269114981036       -0.62095013153917
C            1.16479975403686       -1.58008865537385       -0.03677428879463
N            0.48260744072686       -2.59049368599499        0.36427453335532
C           -0.71317805940230       -2.77362363644992        0.87005960454596
N           -1.84381457744947       -2.28411965813519        0.48060441410943
C           -2.18562312540253       -1.11476515035754       -0.00740899976101
C           -3.40531454672124       -0.80808257061227       -0.58423178776096
C           -3.52735451441568        0.59756395098844       -0.52657923482457
N           -4.56219775442265        1.34137689056139       -0.92197575665433
N           -2.43631000347695        1.19075962435208        0.00552241553617
C           -1.54702043721169        0.23170880615733        0.25550052486680
C           -0.22289977045332        0.59912001505355        0.50906008547911
C           -0.07029864082858        1.99404594969409        0.73652703929511
N            0.04487364396372        3.10784676104732        0.97944287200589
C            0.96764984148140       -0.11860761706717        0.29795866951304
H            4.74017579929584        0.42018727547077       -0.85134939888699
H            4.73787634246853       -1.24131120220730       -1.39173420730453
H           -0.78068344178833       -3.59984962566766        1.57442179693210
H           -4.14639377331667       -1.50139923544548       -0.92450472826134
H           -4.51746237827763        2.33566517239081       -0.77894745607490
H           -5.36360299957444        0.92671021108165       -1.36167515520157
