25
 energy: -47.489471923005 gnorm: 0.000751006487 xtb: 6.6.1 (8d0f1dd)
N           -3.54599109044043        2.25596659801664        1.33770787408875
C           -2.89031435676638        1.42327420539833        0.88754769020198
C           -2.16863582501840        0.37861870092964        0.32729575243360
C           -2.74485736508298       -0.69064674393908       -0.42681176119482
N           -4.04614207283925       -0.83944304430551       -0.68375449232198
N           -1.83914436027443       -1.56675946847462       -0.88105439556213
C           -0.65724153318194       -1.19528760191127       -0.38389108212569
N            0.32226060837277       -2.02386617058242       -0.25662830821776
C            1.55236490910821       -1.92950690335033        0.20201348852391
N            1.98406387184611       -2.96270015339821        0.96619228620826
N            2.48639918664499       -1.05933805768721       -0.16723151221672
C            2.46978569427083        0.22614626785811       -0.24458762100243
C            3.56777281002270        0.99756433827382       -0.67966847117744
C            3.28129374708225        2.33152092303814       -0.47935288160968
C            1.97628069406770        2.48709114623641        0.02211844393318
C            1.38710821366986        1.24001380981070        0.17035646810922
N            0.11294853795310        1.11198117051451        0.43308575005418
C           -0.77330216017683        0.18494844644997        0.25644667131658
H           -4.71638399341680       -0.19248280170440       -0.30690660408671
H           -4.34123663468768       -1.60474677807214       -1.26391213816551
H            1.39244926294530       -3.77151730223754        1.04398871490378
H            2.97327545026183       -3.06371645088604        1.11313073743454
H            4.49436158860560        0.58132876138332       -1.02475172776552
H            3.95482402637765        3.14594083048131       -0.68184122337338
H            1.48581208745610        3.41880378736774        0.22744554201356
