33
 energy: -63.645143636235 gnorm: 0.000513368282 xtb: 6.6.1 (8d0f1dd)
N            3.65792356784054       -2.98109718727638       -1.05887948903852
C            2.87034125663998       -2.24243602072382       -0.66573686283586
C            1.87311799240594       -1.33535629888206       -0.22129137987331
C            2.30507137557307       -0.00940703732197       -0.22603237435847
C            3.62785158037497        0.33471288819412       -0.51475086161347
C            3.85491409617518        1.67597795593387       -0.16687840823962
N            5.02738305103687        2.32369649459896       -0.25701826292571
C            2.64463170176362        2.22751719557000        0.30208321520007
C            1.64072625080702        1.26827045022730        0.21830106125617
N            0.39715107527429        1.63935641531049        0.35854563560348
C           -0.76372008987780        1.08662660100028        0.16832734870919
C           -1.90039503320011        1.93462092175465        0.05492495875746
C           -1.89198672322881        3.32800549295863        0.09984824548534
N           -1.94385969107212        4.47636535620568        0.12879042796521
C           -3.04192528348996        1.14964935743404       -0.18373016745263
N           -4.28579812834322        1.58904633722003       -0.40856419784485
C           -2.64532468566290       -0.21939626443907       -0.14767853537672
C           -3.56742024284029       -1.23204049897459       -0.42299040300397
N           -4.40187791393546       -1.96428648112480       -0.72424061516632
C           -1.25953605477776       -0.30817497647579        0.07452471880690
C           -0.62872350402603       -1.53719791727441        0.34748328611418
C           -1.54195437510962       -2.53726707991691        0.77420142218014
N           -2.22808174048882       -3.34920080736026        1.20986086626234
C            0.70274920714336       -1.99891354997889        0.26257926265870
N            0.90550333614240       -3.29520290653253        0.62734988248897
H            4.38064444519994       -0.33452797380116       -0.88814044228399
H            5.82487061419679        1.87511115170729       -0.67133826900745
H            5.09187990237469        3.29142627638080        0.00318443865067
H            2.48275440238259        3.24350932993310        0.60454886327823
H           -5.02757936275132        0.93201357726117       -0.58294574459325
H           -4.47858433662311        2.57576306048868       -0.42013732459229
H            1.80575370050138       -3.72208100035666        0.49007822156171
H            0.12097870119460       -3.89155301393743        0.83180945012929
