28
 energy: -56.252149306803 gnorm: 0.000873986961 xtb: 6.6.1 (8d0f1dd)
N           -3.00953163458083        3.04695868916478       -0.16970954890072
C           -2.66209885746791        1.95078935444653       -0.12712929533895
C           -2.42832484201396        0.58140893972236       -0.00080319307449
C           -3.41925325529323       -0.26675427969697        0.60464294548705
N           -4.59436305099562        0.17815615682333        1.06099243326009
C           -2.94126555323415       -1.57757583546733        0.62541564748644
C           -1.69344404616274       -1.61313605172473        0.00390303259273
N           -1.17955186102908       -2.69989920006239       -0.50039830189796
C           -0.00707003490629       -3.01542599440459       -0.95965294903242
N            1.15916749157089       -2.69353384132922       -0.47600377540598
C            1.66241279061806       -1.61165111974223        0.01747420738645
N            2.85503398165909       -1.63463367091673        0.63104513000136
C            3.31608849426178       -0.38927814161200        0.63781347543616
N            4.50031643433196       -0.06259001495081        1.14902391539462
C            2.38506508457216        0.54801508811398        0.04846280527222
C            2.68197833207615        1.90663180704688       -0.02153366371361
N            3.06620373150588        2.99108386463178       -0.01575047944977
C            1.24644864168965       -0.19303632900749       -0.26942662480302
C           -0.02634701890098        0.34869026010117       -0.53688286593670
C           -0.00321292342970        1.72287413002555       -0.89522727643835
N            0.04109637277257        2.79540074149279       -1.29790423643546
C           -1.29272103778492       -0.18957053456114       -0.28525834465483
H           -4.84184612881615        1.14711332856183        0.94410173363262
H           -5.24282426865274       -0.44814308455753        1.50408488762068
H           -3.47541130098337       -2.43962123176723        0.97276829801699
H            0.00497869278907       -3.80849258784398       -1.70339109601100
H            5.07337857219520       -0.78505715231718        1.54954699147141
H            4.83873058902183        0.88268134773297        1.08497807612713
