35
 energy: -59.913563496673 gnorm: 0.000660987746 xtb: 6.6.1 (8d0f1dd)
N            1.73988532920923       -2.63925035666679       -1.36989574679178
C            1.07140696084598       -1.74072130226181       -0.57538189052863
N           -0.02809608957886       -2.21142490531271       -0.04900604490413
C           -1.09983840254111       -1.71880879013044        0.51713015824567
N           -1.77113151844487       -2.61958626369931        1.30901821208874
C           -1.76092920227902       -0.51484357244830        0.19900034708204
C           -3.16393282301255       -0.39420275770479        0.12866528533806
N           -4.11388614991973       -1.34241518001551        0.44480522044653
N           -3.54930419595598        0.80434846205624       -0.33542683438515
C           -2.43015887866947        1.50960429457171       -0.52590982550288
N           -2.53622995719101        2.82448470850234       -0.97244418381966
C           -1.25238449578948        0.78268827343012       -0.21334000363373
C            0.01698229827712        1.37812614162791       -0.04206988040755
N            0.05369742112605        2.73182630683267       -0.12401905407597
C            1.26459280555728        0.74671006609100        0.18447506138729
C            2.44515817284542        1.43931015526645        0.55175385811342
N            2.56526246025147        2.75070101169899        1.02308746651842
N            3.55170718341102        0.70262892757879        0.41548270591339
C            3.15548020390344       -0.48143215933577       -0.07658927629211
N            4.09117649252586       -1.45449702619739       -0.36204484790589
C            1.75509233884720       -0.56169905004169       -0.20934418589420
H            2.43617414829819       -2.26867021825908       -1.99431785431161
H            1.19645265958129       -3.42184970015699       -1.69680773071843
H           -2.42917791592152       -2.24413719838696        1.97109155688686
H           -1.23683329284767       -3.42321573532736        1.59862283624129
H           -5.01615116341647       -1.10955637205831        0.05377945315792
H           -3.82945803695490       -2.29708006551120        0.27177321397482
H           -1.93184353888705        3.03278979723019       -1.75840016420778
H           -3.50498518933090        3.03144105141331       -1.18460486020269
H           -0.80363195378917        3.25138179804426       -0.03031717445245
H            0.94241388350383        3.19420654231667       -0.02083614713819
H            3.53439126627723        2.92713457497594        1.26145221818849
H            1.96108363949997        2.94502210911185        1.81380438290628
H            4.98072184594543       -1.25496345625046        0.07356774879486
H            3.77071200052424       -2.40188714468374       -0.21533540521097
