29
 energy: -49.581078966701 gnorm: 0.000757672501 xtb: 6.6.1 (8d0f1dd)
N           -4.09528899362299       -1.50437105563819       -0.55195645679870
C           -3.26017371004235       -0.46516961913673       -0.28976073454266
N           -3.76026261648894        0.73533656781703        0.02180610172348
C           -2.71320191602896        1.51000010184577        0.31369481914207
C           -1.47613173912551        0.85242729206554        0.22309478009038
C           -0.23209294841751        1.52666785097741        0.26036587804228
N           -0.25876078517671        2.82866984382135        0.63243567988386
C            1.05178510041230        1.03477291327273       -0.08214530271528
C            2.11956036505536        1.87970436903165       -0.45437447040774
N            3.27312761293027        1.23809623461985       -0.59545359242442
C            3.03230357182158       -0.04102787154948       -0.25620188918328
N            4.06525787877561       -0.95766350677033       -0.22957926728500
C            1.67372279332145       -0.26427577655468        0.03884902153141
C            1.14390213865792       -1.50694510148580        0.47304582001716
N            1.96682273994832       -2.31586152217440        1.19091983717564
N            0.03001601065618       -2.07524080946434        0.08678683756076
C           -1.11982137992867       -1.67091568999916       -0.36903002489285
C           -1.83506076572411       -0.50061632297277       -0.17729721665991
H           -3.74653576721439       -2.27890267364348       -1.09087577178124
H           -5.05608830888136       -1.24475412896573       -0.70333919568138
H           -2.91078341914097        2.54186821947623        0.55025099343271
H           -1.13115533270690        3.31802865824188        0.71113624636387
H            0.58986426265872        3.36346618946787        0.58642567041207
H            2.07776734999874        2.92665727288860       -0.70366682884977
H            4.87705930326937       -0.61363242307607       -0.72349603214659
H            3.80668831048526       -1.89915985142599       -0.49074685716071
H            2.79450437458803       -1.92662225172294        1.60669027587168
H            1.58911610729788       -3.17638791618651        1.54877431734735
H           -1.65500718837723       -2.47571145365905       -0.87500267196466
