34
 energy: -56.970998378621 gnorm: 0.000475455774 xtb: 6.6.1 (8d0f1dd)
N            5.46724313952413       -0.59259516867751        0.43680263626507
C            4.36202709899868       -0.32660396242626        0.24652077588170
C            3.02121668713805       -0.02094383289950        0.04401928116887
C            2.42414461587267        1.23941143714565        0.19777158799065
N            3.12850220963652        2.37494122636178        0.46973522744336
C            1.02185026034913        1.11959547014632       -0.02754881674194
C            0.26076401462597        2.27635600406096       -0.12658288334124
C           -1.06600412120465        2.59547883732935       -0.33592461281058
C           -2.26371479945098        1.88055158580472       -0.27110665993892
N           -3.38057925113557        2.61154783260963       -0.54249409176119
C           -2.49961173557081        0.53081408755490        0.09468790976708
C           -3.74205742625765        0.09854718824183        0.59377310177368
N           -3.80233284550105       -1.21752329802281        0.77367196251092
C           -2.63576394384566       -1.70483165794243        0.33033837507199
N           -2.42809650074854       -3.07545584026693        0.35563636166407
C           -1.74190480991352       -0.68212627005196       -0.08068685172868
C           -0.44223864579739       -0.98186428455402       -0.55973908545843
N           -0.32457671560591       -2.20636858285321       -1.16258461110648
C            0.76036536662595       -0.28898915145859       -0.32175266687948
C            2.00897185338567       -0.95086574989617       -0.28945142361028
N            2.28778753808140       -2.28749707692739       -0.48451825989020
H            2.64938215220363        3.15336689165896        0.88942042476861
H            4.08703427107687        2.24625693417703        0.75120419269249
H            0.87699995261187        3.16961026563696       -0.07080209250383
H           -1.22602607535221        3.65458230904708       -0.52007915511614
H           -3.32077238414960        3.61368993322114       -0.59615489548991
H           -4.28542191167237        2.19625730822858       -0.41416567739632
H           -4.57883069937002        0.70071689992399        0.90455970525364
H           -1.49601663539247       -3.35951102660319        0.62609775285589
H           -3.14534529618715       -3.52773598401030        0.90771470794360
H           -1.18539552738900       -2.64838237886992       -1.44568461712221
H            0.47421713911926       -2.34789403471577       -1.75920094395534
H            3.22447218481846       -2.54100755226027       -0.19814268803558
H            1.58295125837583       -2.93725204871267       -0.16554875216509
