27
 energy: -46.916651035223 gnorm: 0.000717516022 xtb: 6.6.1 (8d0f1dd)
N            0.44785355657463        3.56675336195565        0.88065041116458
C            0.19627252647331        2.48247236740946        0.60564439189203
C           -0.07075403156955        1.11288589448653        0.31637219905989
C            1.08579453431524        0.31844641856531        0.14594925609539
C            2.34721282838627        0.88273134040540        0.13821981440290
C            3.31647784435854       -0.09932987839429       -0.21158882916538
N            4.65065550099313        0.13124936018763       -0.27854538753691
C            2.65791111034476       -1.29888339039957       -0.40369769926395
C            1.27035385343057       -1.12553628685577       -0.15703706839183
C            0.44842843593800       -2.21442774414902       -0.08279948784150
C           -0.93757556765105       -2.39403125507746        0.21425625449286
N           -1.27554178173542       -3.66140103804051        0.61661617438774
N           -1.96407948675959       -1.63393491930180       -0.00809373675833
C           -2.19437761530815       -0.35855609074222       -0.21765269351580
C           -3.44535050602980        0.12384202079224       -0.61229296399369
C           -3.40669208216542        1.50811090750112       -0.44054492687808
N           -2.23931032017839        1.94520537229868        0.01759096924461
C           -1.41831023928420        0.87283196565610        0.10512942221570
H            2.57102339565817        1.91560868949758        0.33110313216390
H            4.97093309852809        1.08413001756203       -0.28479529072154
H            5.23919573480281       -0.55429864200948       -0.71895845093822
H            3.11495224658288       -2.23635395069095       -0.66018495937292
H            0.95597468790174       -3.15957828787009       -0.25177866172955
H           -2.23185300044466       -3.80391783293541        0.89318810467517
H           -0.57647266449315       -4.26924430634141        1.00359438010095
H           -4.27761653044377       -0.46841431217222       -0.93638921285709
H           -4.20371984702447        2.20722217616331       -0.62478410653194
