26
 energy: -42.425487154853 gnorm: 0.000746022652 xtb: 6.6.1 (8d0f1dd)
N           -1.78783880375090        2.17403047917092        1.30562125406664
C           -1.12939280644285        1.35701395163425        0.45702281932715
N           -0.00478131794674        1.81977667434877       -0.00705121092946
C            1.12476905417765        1.36927044037139       -0.47257685048615
N            1.79471195744994        2.19147496124027       -1.30516726351218
C            1.78466942652604        0.17145675477010       -0.06798117650274
C            3.15978131322739        0.02245492117136        0.08061544369091
N            3.51028899347190       -1.24215226818969        0.38484647457778
C            2.39293810357074       -1.94558021300997        0.38721549147955
C            1.24071963811798       -1.15241638036708        0.14123933514202
C           -0.02566037398223       -1.70379072507739       -0.01789818708964
C           -1.28878085012222       -1.16184594037384       -0.17353705166530
C           -2.42121915742510       -1.99014664800176       -0.43179744317282
C           -3.55812296578146       -1.22516864879965       -0.41945529603545
C           -3.19649215539152        0.09576483278983       -0.09583341654866
C           -1.81641237424554        0.17341612379150        0.03714158450589
H           -2.69341176150077        1.91478250289373        1.65223556468552
H           -1.37090598544673        3.04488406934813        1.58439669247634
H            2.72521525352569        1.95394514373175       -1.59797402156885
H            1.40375283387857        3.08548656238155       -1.54688773629342
H            3.91274540439929        0.79093956100136        0.03562842228760
H            2.40557614049395       -3.00295590746026        0.58314520743254
H           -0.01627231281498       -2.79097874122882       -0.02945857402863
H           -2.36286187639671       -3.04669482515770       -0.62031698567635
H           -4.56105849090419       -1.56394683687482       -0.60579215249225
H           -3.88307494618721        0.92202007589610       -0.02254385207002
