27
 energy: -50.938359434238 gnorm: 0.000588979564 xtb: 6.6.1 (8d0f1dd)
N            4.62346983677001        1.33966492011496        0.72918622421935
C            3.71983664718969        0.67785719290476        0.46253129435212
C            2.66604825830687       -0.17417798627886        0.14503675654634
C            2.79698691417272       -1.58085891544335       -0.03133211733709
N            3.94649074994362       -2.25641051888789        0.10358111542977
C            1.54420783004935       -2.11620472920529       -0.35832207754575
C            0.58771367973322       -1.10444205355731       -0.37848195053926
N           -0.67819704720711       -1.39273152160256       -0.51073244542000
C           -1.78753865606711       -0.74991234369295       -0.27746089249260
N           -2.94542698279539       -1.39860631034002       -0.39717704891351
C           -3.87123190826401       -0.57165041744759        0.13024388712724
N           -5.15765205311775       -0.92307117231666        0.19647805528241
N           -3.42926748593756        0.61404044962915        0.56853850420000
C           -2.11556756607451        0.62440387245093        0.27531908815561
C           -1.43824812808426        1.81735488412169        0.27888026998417
C           -0.13224076989121        2.14465582150798       -0.15895225473163
N            0.06369572192295        3.42677008099621       -0.56509410498069
N            0.97311733461136        1.44053234569755       -0.12139084767165
C            1.33110701945696        0.19553725353048       -0.10416933463285
H            4.79091745047766       -1.76770311969260        0.34784696932914
H            3.97854249673415       -3.24760044348168       -0.05502499505306
H            1.33144662146493       -3.15269525094037       -0.53429974142776
H           -5.81278354140166       -0.31325075007367        0.64941005727472
H           -5.42992660269982       -1.83138937560466       -0.13150258740261
H           -2.05921666671538        2.66467824896235        0.54616965365142
H            1.00564501088247        3.72510550766177       -0.75118201654038
H           -0.66403317645831        4.11179943478629       -0.47425831826439
