24
 energy: -34.967244661186 gnorm: 0.000340934345 xtb: 6.6.1 (8d0f1dd)
C           -0.00005122171097       -2.37466079049041        0.00110948599681
C            1.28014899526549       -1.84057864568411        0.00105834693119
C            1.83261653644466       -0.56791893974699        0.00070643492991
C            3.23572072164011       -0.42006344134789        0.00078511444935
C            3.56846852825340        0.92614602487909        0.00038597535210
C            2.39240106821984        1.66340785681719        0.00004660140281
C            1.28277477830519        0.79398006018923        0.00022543137959
C            0.00011108549665        1.31623743468768       -0.00005070091846
C           -1.28259031502981        0.79409766363040        0.00000299405962
C           -2.39213909154541        1.66362178302469       -0.00036675338688
C           -3.56827118383217        0.92646608002795       -0.00023714771371
C           -3.23564690723148       -0.41977172921087        0.00021407014660
C           -1.83255814417429       -0.56775805801752        0.00038184557518
C           -1.28021083437539       -1.84045958024877        0.00082803191086
H           -0.00010021209235       -3.46009124964433        0.00144951246415
H            2.05015114650539       -2.60847458345858        0.00137071287847
H            3.93282310961118       -1.23901639896428        0.00110815796347
H            4.56501499986716        1.32943494836530        0.00034598842300
H            2.32381280287226        2.73664216111612       -0.00030124445818
H            0.00016155645013        2.40449181751793       -0.00039544478710
H           -2.32345503999487        2.73685094557323       -0.00069770191324
H           -4.56478185543899        1.32984563562435       -0.00045010447741
H           -3.93282516628582       -1.23866122620197        0.00041065947202
H           -2.05028055491995       -2.60828790063746        0.00100055001987
