30
 energy: -50.087743962914 gnorm: 0.000641066477 xtb: 6.6.1 (8d0f1dd)
N            0.09098328702055       -3.67083571171548       -0.11399074822856
C            0.08552656508675       -2.52315306394639       -0.06967657299484
C            0.05852797421596       -1.10169125256273       -0.02344615506159
C            1.33040260435735       -0.52934118930580       -0.00937573332238
C            2.47642660137448       -1.33726805754991       -0.01092348194326
C            3.62053862850798       -0.53615417162984        0.02813571560596
N            4.90522817735574       -0.97859429669210       -0.00832459222100
C            3.20895553356736        0.80426189842519        0.04408165450438
C            1.81330159956904        0.87749378351772        0.02035122784371
C            1.21063684413197        2.12646679642991        0.00749895686135
C           -0.08187628610901        2.64869331875175       -0.00645380751284
N           -0.13609160236829        4.03224297476360        0.02695203372167
C           -1.34034971432951        2.03666319478012        0.01773051156515
C           -1.83681027006190        0.75287199151902        0.03278235704045
N           -3.18902914207962        0.66826897670114        0.05369708454930
C           -3.51160687881453       -0.62647660925806        0.04955122436520
N           -4.80005418615676       -1.03592767018490        0.12378302158274
C           -2.36964927889620       -1.45105114957670        0.01760327251004
C           -1.26147725175203       -0.60719527082855        0.00790531320476
H            2.47927160597282       -2.41083691673302       -0.03123477518371
H            5.07282248886074       -1.95319165102679        0.17363729108541
H            5.63808724419968       -0.33748620820734        0.24208607059861
H            3.87004741166044        1.65158860925033        0.07042117796427
H            1.96086820935769        2.91502901555700        0.01356902547079
H           -1.01118145083709        4.47111524981245       -0.20225531963295
H            0.68997390615499        4.54578281280647       -0.22844406290026
H           -2.16257693963953        2.74670358359983        0.03201904912508
H           -5.50819151806212       -0.33747877859453       -0.02214707321374
H           -5.01754368563884       -1.98633342043033       -0.11909012514369
H           -2.37108616024809       -2.52335468357204        0.00671766365995
