26
 energy: -42.415401941486 gnorm: 0.000831378534 xtb: 6.6.1 (8d0f1dd)
N           -3.15500071965941       -2.11344636176461        0.53158138133014
C           -2.77241427807862       -0.84667079561185        0.22312756043859
C           -3.64964377426418        0.19102326359873       -0.11477151793390
C           -2.90151308592815        1.30458940512113       -0.44326554543042
C           -1.52829112873652        1.03463702964472       -0.27187464567572
C           -0.56945983753115        2.00900975558274       -0.50791042475900
N            0.64493753635990        2.15916203237370       -0.05986362354529
C            1.61007462552009        1.40405794406786        0.37932357484103
N            2.49729572742589        2.00781514439006        1.20047894286881
C            1.90626344695401        0.05583577966506        0.00160025132607
C            3.18021986888222       -0.47478341621088       -0.16193878662298
N            3.16188027964698       -1.80853175261927       -0.36240612592461
C            1.89569900093829       -2.17402217378967       -0.28218350993825
C            1.01592207962932       -1.07696940079614       -0.08534515837168
C           -0.35503023045283       -1.24664072533008        0.08996040548641
C           -1.42346214418703       -0.37420590799549        0.11370280115580
H           -4.12976109275243       -2.27730294383158        0.71329963831445
H           -2.50050411074057       -2.73138291027219        0.97808155530779
H           -4.72189278425527        0.11655528472217       -0.12445513961580
H           -3.29748941244890        2.25887016489731       -0.74151573419405
H           -0.92388620252091        2.89089030139569       -1.04040512182164
H            3.34822510362796        1.53509519894505        1.44722973036410
H            2.38843979859706        2.98580873828906        1.40778751468685
H            4.11494510340609        0.05882347762002       -0.19612180537027
H            1.61106677102516       -3.20624750950232       -0.38841981560966
H           -0.63016873405708       -2.29600874398966        0.16784974299322
