24
 energy: -42.958889679240 gnorm: 0.000839232856 xtb: 6.6.1 (8d0f1dd)
N           -4.67129257148279        1.11946602355022        0.35078917127269
C           -3.40915097439207        0.68554964807974        0.17230171525954
C           -2.26579806803648        1.47903348829747       -0.04493929068260
C           -1.20651324908255        0.60289058960078       -0.24742713266330
N           -0.00089475632825        1.05544609774652       -0.52732122528853
C            1.20678839443411        0.62518175168689       -0.46951040683189
C            2.38090153648124        1.36078614359503       -0.62605756034099
C            3.34949495339047        0.70815653030927        0.15370159502159
N            4.59646083368044        1.13192669046453        0.40523310341158
N            2.91772920928713       -0.44943422489541        0.71078783462796
C            1.70345200293739       -0.67250083432197        0.22004767362701
N            1.16720343810929       -1.82308738206593        0.09719932407612
C            0.06437487480758       -2.41343819429062       -0.25990462589050
C           -1.26510436342627       -2.02605625811659       -0.11367043418524
C           -1.81645893835510       -0.75954033751731       -0.07189064378137
N           -3.13209038613128       -0.62821236028012        0.15388485523814
H           -5.37679935803592        0.43838723856722        0.56818401143678
H           -4.85001019540810        2.08976183581302        0.53567739016381
H           -2.22406683221784        2.54881198856494       -0.08607785327791
H            2.49860415231517        2.28545010684431       -1.15362527458588
H            5.18030905364588        0.57361642435895        1.00097986665591
H            4.97022074482523        1.93972450114357       -0.05691400339415
H            0.23634710694479       -3.42531301662838       -0.62281295848971
H           -1.99850792826118       -2.82212653830603       -0.09175872287942
