29
 energy: -55.976378192602 gnorm: 0.000535129185 xtb: 6.6.1 (8d0f1dd)
N           -2.89733695704126       -3.09342364489202       -0.20599310167061
C           -2.59896202511768       -1.98855272387872       -0.09290077352516
C           -2.42991982231946       -0.60600905837226       -0.02626524263436
C           -3.53746626684682        0.27673593798442       -0.20773810326197
N           -4.80800911696219       -0.08498819235504       -0.40110710911787
N           -3.15132146420917        1.55365235068052       -0.16004392355263
C           -1.81766686690680        1.58678266731251       -0.00148041532309
C           -1.27514534584972        2.85997495749906        0.13229283883467
C           -0.00002444150120        3.38857032265180        0.22678578149997
C            1.27596882551917        2.85825736964706        0.15690888624373
C            1.81924689168487        1.58434119472629        0.03351403058110
N            3.15566822046631        1.54941303700305       -0.09940759253338
C            3.54092862010475        0.27197676299099       -0.13976470303540
N            4.81449064624980       -0.09145657285403       -0.30860458073080
C            2.42891102455355       -0.60927961461341        0.02028240634496
C            2.59730402215111       -1.99203879040503       -0.04337071543400
N            2.89647044356272       -3.09731607608723       -0.15034296236349
C            1.28564244089054        0.20717587454030        0.11010133356772
C           -0.00296615428739       -0.31995851843235        0.27527502269126
C           -0.00787932427382       -1.67518303873120        0.70876695791670
N           -0.01361592565009       -2.71535278266890        1.19141936518401
C           -1.28748248174016        0.20888998089500        0.08544724936264
H           -5.05912033526161       -1.05801828438602       -0.42752916188700
H           -5.50442555582836        0.62576873440673       -0.53791050762236
H           -2.06838631556300        3.59973110173615        0.12804827552896
H           -0.00026822520878        4.46838237013905        0.32763714822003
H            2.07014118932714        3.59694267420701        0.16793560999518
H            5.51433776889794        0.61835959752371       -0.43214864049336
H            5.06470639965951       -1.06482946546732       -0.33053848048543
