30
 energy: -59.701715885160 gnorm: 0.000655098748 xtb: 6.6.1 (8d0f1dd)
N           -3.78252483388105        2.80485610474785        0.79425934363075
C           -3.32452559433100        1.78871154437316        0.51008906198463
C           -2.88512372312634        0.51731995001780        0.15675326313041
C           -3.75506135617307       -0.51617719456891       -0.34712148250949
N           -5.07286416615490       -0.38533814365102       -0.51778195616480
N           -3.09916035786696       -1.62940879757974       -0.62921202913013
C           -1.79668570883956       -1.44282334271869       -0.28429036758161
C           -1.00067126400743       -2.54782283740029       -0.20988076602353
C            0.32745400901774       -2.70042374840966        0.29429871734024
N            0.61305782504554       -3.89313176070123        0.86678972646315
N            1.34968793513185       -1.90290989963913        0.17184404222224
C            1.59418291883668       -0.63711500345870        0.01654308960799
C            2.87559443603727       -0.16049747227798       -0.30713878147132
C            3.98200727260608       -0.93416367196810       -0.65544867070747
N            4.91543914178948       -1.53936438197464       -0.94803219493374
C            2.89909326265028        1.25407116332253       -0.15968122450179
N            3.96617944481062        2.03488351693077       -0.34697166766115
C            1.61004055726629        1.69303067865018        0.21968700104318
C            1.29225523833720        3.03264232780895        0.44549871521865
N            1.11518739661011        4.15544246548202        0.61799283023661
C            0.73473366420930        0.58176853590704        0.26614451377568
N           -0.54609205494345        0.74864126931920        0.35972936334112
C           -1.59357918906520       -0.01750136301250        0.14815674293893
H           -5.59455901624776       -1.14837415819384       -0.91110634322599
H           -5.52902408031524        0.48135946879611       -0.29255207107630
H           -1.50908495799678       -3.47110946757768       -0.45891115400088
H           -0.06587540921807       -4.63199667780309        0.89002844883313
H            1.56140105420313       -4.07880429638315        1.14479631431468
H            4.84268946721933        1.63582052547787       -0.63784319479099
H            3.89366084260159        3.02783626337669       -0.20023993330360
