26
 energy: -42.411296825063 gnorm: 0.000794637236 xtb: 6.6.1 (8d0f1dd)
N           -3.68509011863542       -1.49654945519156       -0.00158449214423
C           -2.73915811406874       -0.54115339782426       -0.01204114738338
N           -3.11025171851082        0.74269180473534       -0.00126682644871
C           -1.98114286164829        1.46492413476564        0.01753201648766
N           -2.05776098849339        2.80550139822729        0.00466389450779
C           -0.79649879616780        0.65635949032348        0.01295603372519
C            0.45608080113176        1.21300051693829       -0.00391270736300
C            1.74498442423387        0.67849377235964       -0.01777670269026
C            2.87314174329051        1.52890941717922       -0.05558424615091
N            4.02860945894827        0.86729155380033       -0.05952831526273
C            3.70042907976906       -0.42668424673328       -0.02209695479071
C            2.30781947952826       -0.64862096608825        0.00461743792133
C            1.80200679043337       -1.95495937674163        0.04866060345862
C            0.54440725458582       -2.50420733680810        0.06134545971818
C           -0.75527950356616       -1.97449495610102        0.03300841671083
C           -1.30957470817467       -0.71895748003039        0.00804341120972
H           -3.45339872149840       -2.45684800858014       -0.17859964148846
H           -4.63696883101089       -1.19755902280197       -0.12090094702701
H           -2.96840643081926        3.21839144508718        0.10072556422897
H           -1.24429148230767        3.37290008344435        0.15728830138867
H            0.46604194562910        2.30038377065559       -0.01688112445704
H            2.86114568131556        2.60557919067895       -0.08093781341313
H            4.46758906730488       -1.18182424581653       -0.01581201622463
H            2.59929794868284       -2.69320189729002        0.07183818213606
H            0.54635555831317       -3.58904903326472        0.09325544070115
H           -1.50290538206502       -2.76389052862332        0.03987319085009
