29
 energy: -49.575563079515 gnorm: 0.000628053187 xtb: 6.6.1 (8d0f1dd)
N            3.95144180104526       -1.38613971096882       -0.65101624650793
C            2.96890729559050       -0.51123192198343       -0.33107925307314
N            3.26820498073539        0.72565042209283        0.06600937923017
C            2.10315094085733        1.30947862314048        0.40107559051526
N            2.12990722879115        2.62598988565146        0.82244338933479
C            0.97943400309346        0.46527502493159        0.22685951713383
C           -0.34657053941643        0.93716929756682        0.10901716100090
N           -0.51806594666015        2.27698423738430        0.18493351999467
C           -1.53731164090982        0.18254703298546       -0.07637971494170
C           -2.79773280515244        0.75508940212247       -0.38425929313004
N           -3.07515229767582        2.04139223811380       -0.84218978512873
N           -3.82120325668689       -0.09123483567353       -0.17786506688458
C           -3.28400981880474       -1.21284615193168        0.29028591231964
C           -1.88038968396052       -1.16026093497972        0.33873786022508
C           -1.10173223553638       -2.27582375079732        0.67435188151304
N            0.04234435937729       -2.64707474869709        0.20456277811778
C            1.05082435827266       -2.06222262689281       -0.39073479356499
C            1.57040068440863       -0.79511303978470       -0.21091694603255
H            3.71771031270237       -2.20408247029348       -1.18640842121164
H            4.86597886240590       -0.98877606519542       -0.78304774412063
H            3.08576600860890        2.94449115614014        0.92037545039199
H            1.57574509239443        2.81304485428309        1.64784482078945
H            0.27355814440060        2.88729645504188        0.06867985820239
H           -1.45435585754048        2.64529268729783        0.12202857717037
H           -2.53074277752931        2.31343229330959       -1.65240489696289
H           -4.06832306935151        2.12532276733871       -1.02461408086641
H           -3.90147562753163       -2.06268667874074        0.51912045597707
H           -1.58140798230321       -3.03072567942320        1.29519688707082
H            1.65282358087480       -2.76796992733800       -0.96242522026279
