29
 energy: -45.566233529269 gnorm: 0.000543704351 xtb: 6.6.1 (8d0f1dd)
N            3.16015930460950       -2.15025384211075       -0.04736307320643
C            2.86216190369114       -0.81204743459968       -0.04525900832035
C            3.82284994100610        0.20534506017144       -0.02147725014330
C            3.16376855621067        1.41770093437049        0.02307611802604
C            1.76613465492170        1.21540195292117        0.02661154939060
C            0.91810502493121        2.31307077961601        0.06148929902822
C           -0.44221872225080        2.54479517435583        0.05337270875271
C           -1.61674280732265        1.77743201298099       -0.00395464549425
N           -2.74382179823377        2.54202479263853       -0.04490634945034
C           -1.82824451733726        0.37472887230213       -0.02839685646265
C           -3.10751379974975       -0.19352596844155       -0.10562987592449
N           -3.11373938756569       -1.53016401622048       -0.06113648152049
C           -1.83699527837682       -1.89759060189858        0.04789622281395
N           -1.51591882335571       -3.22816588679876        0.08066406984453
C           -0.94022807937283       -0.77889977294542        0.04900512595289
C            0.42363157897126       -1.00923913969548        0.04025142232710
C            1.56005887565104       -0.22533255215216       -0.00226526824795
H            2.46600119969991       -2.78156354071700       -0.41427154897328
H            4.10814835083237       -2.38102162600447       -0.29829724690420
H            4.88732558859507        0.05430788495010       -0.04074559525827
H            3.63712950235198        2.38360269630952        0.04201268978428
H            1.48424479323037        3.24095547236567        0.09797436206622
H           -0.67214952273346        3.60753973853134        0.08537886440559
H           -2.67301008704862        3.54081153186886        0.02676868693712
H           -3.65309655684966        2.12490623737488       -0.00295576342626
H           -4.06343071312372        0.29361478022978       -0.19624625897846
H           -2.32311892091180       -3.81985817967181        0.20583325738995
H           -0.71087647502895       -3.49785676621369        0.62330842023355
H            0.65109007075898       -2.07207948381659        0.05547493295802
