29
 energy: -45.572361107014 gnorm: 0.000324944990 xtb: 6.6.1 (8d0f1dd)
N            3.04885376417705        2.31549895175877       -0.18547764873492
C            2.87842188102680        0.96087949260216       -0.10028535975516
C            3.93969449775215        0.04566152915015       -0.02800256945572
C            3.39998154463493       -1.21652309329530        0.07825621305495
C            1.98345722920943       -1.15316247994335        0.07069949057576
C            1.26504348234881       -2.34297142301887        0.13237383747341
C           -0.06887112182604       -2.71056477295816        0.08579350851776
C           -1.26721429171749       -2.01169766813207       -0.00522258685720
C           -1.62230518156665       -0.67617598786141       -0.01884223464703
C           -2.99233495188490       -0.27361254263329       -0.07576196483944
N           -4.08966398913907       -1.06741663470389       -0.13026982219619
N           -3.15465510494365        1.05628760224764        0.00108029989982
C           -1.92562962309239        1.57565915212085        0.09357156684243
N           -1.77728715255914        2.92729938016681        0.14885746222538
C           -0.89297598994155        0.58665430254586        0.05823352434982
C            0.43654788585398        0.94721990092233        0.02275610845444
C            1.63986577949882        0.25379638125425       -0.02019810290579
H            3.97071374014994        2.62524320302900       -0.44708595278004
H            2.29462380060505        2.86415111468728       -0.56508013548252
H            4.98354861261026        0.30126127263700       -0.05994539318922
H            3.96281500124069       -2.13117087870722        0.14458407509617
H            1.92795911760808       -3.20154667353110        0.20799906816496
H           -0.21302411484296       -3.78608147655484        0.11945810954509
H           -2.12655405648270       -2.67622840992548       -0.04830713692556
H           -4.95572129590736       -0.59320338931337       -0.32273384436153
H           -3.99524040707527       -2.00818819684963       -0.47127787495988
H           -2.63308326233413        3.42855285636597        0.32524302227103
H           -0.95387522379035        3.29453344524374        0.59592282259004
H            0.57262612998713        2.02598637489639        0.02461035432926
