27
 energy: -42.128044264888 gnorm: 0.000573719351 xtb: 6.6.1 (8d0f1dd)
N            2.03063832517702       -2.37684106745246        0.38545960458421
C            1.00864457385002       -1.50060389564819        0.17725166027403
C           -0.24540232729210       -2.13891180229344        0.01352825548288
C           -1.54807272859809       -1.75364290030661       -0.16145564536163
C           -2.27056564351762       -0.55608038683537       -0.13568224599469
C           -3.66572624431156       -0.58046938230383       -0.28698245886118
C           -4.17862389181082        0.71152347158620       -0.16440128786479
C           -3.12316111295502        1.56985151751442        0.06643517052423
C           -1.90879731641048        0.83524296565406        0.08384061669718
C           -0.70174817308893        1.48621228052387        0.24098705108325
C            0.63059153404423        1.10315139763920        0.19944829281844
C            1.62814999816584        2.10099941799120        0.23730704940911
N            2.85505422231220        1.62136945617032        0.09695193391561
C            2.72805670532593        0.28804574944979        0.00309241981761
N            3.87677108167558       -0.47481735652286       -0.15772828618205
C            1.37800334128974       -0.14669288784711        0.08467625199749
H            1.80766867539485       -3.33815099936691        0.58121982370468
H            2.90873510114562       -2.01828184553619        0.72765316891515
H           -0.12858873065541       -3.22031684597801        0.01743775693027
H           -2.21002932769014       -2.60240077153103       -0.31769940486764
H           -4.24716908980431       -1.46884770956595       -0.46279152765153
H           -5.21602963960657        0.98431234758663       -0.23662055886947
H           -3.18827313655041        2.63483192979953        0.20230810456054
H           -0.81336757472116        2.55951305001053        0.37719947314329
H            1.46484561869548        3.15966845480122        0.33131443517943
H            3.82271686775198       -1.15802124569416       -0.90318672906294
H            4.67656652388388        0.13735619625517       -0.26946567002118
