28
 energy: -51.439759228224 gnorm: 0.000720339569 xtb: 6.6.1 (8d0f1dd)
N            3.57583945077434       -2.52124098272162       -0.26389365843448
C            2.56324060954600       -1.99082842682186       -0.14762743318263
C            1.28331233009958       -1.38023589773372       -0.02920462415198
C            0.24876886290152       -2.35025302476763        0.08859995479056
N            0.66460455452886       -3.64439070444645        0.24089796464241
C           -1.14326275493116       -2.22034825080513        0.06253881650076
C           -2.05672964563572       -1.19502230956225       -0.03561555596863
N           -3.36644369366446       -1.54115760684274       -0.10194659029558
C           -4.02787884281768       -0.39590806039307       -0.14923525099747
N           -3.28537004511288        0.70962199808479       -0.10171489769098
C           -2.01382734200448        0.27539096931478       -0.03692156158510
C           -0.99482475155237        1.22465152688451        0.04597751131376
C           -1.52981289529296        2.54492407658496        0.10900334516914
N           -1.93867145636105        3.61398753919387        0.16897964124788
C            0.40076723113135        1.15203781637675        0.04750703035091
C            1.15277588891969        2.32441915173665        0.07394439007901
C            2.52158110570285        2.01531477936243       -0.01669375631502
N            3.53102918357214        2.90064642257226       -0.03098888006095
C            2.64035940373785        0.62018519080654       -0.09149943147081
C            1.37792466007521        0.02186178818325       -0.03637594801055
H           -0.01303501308179       -4.38451474575711        0.20373277478286
H            1.63695212062766       -3.88986795510236        0.17801097062421
H           -1.66172144948165       -3.17407448625335        0.10911122497461
H           -5.09929496336452       -0.35497516846853       -0.21722711767156
H            0.74832937790886        3.31675178866835        0.13474259515265
H            4.48204828689687        2.58701788820260       -0.10246413105135
H            3.34376795014932        3.88420973039964        0.04256813830556
H            3.57638304732886        0.09964777000443       -0.16002717034743
