32
 energy: -53.530256600544 gnorm: 0.000600154323 xtb: 6.6.1 (8d0f1dd)
N           -5.36049695613958       -0.30256262643202       -0.47263851685049
C           -4.23591085538086       -0.14276345522323       -0.28025615965152
C           -2.87257094920619        0.03785919093964       -0.07040267213474
C           -2.17219226482876        1.25041787318891       -0.17369201492040
N           -2.77700142476506        2.44977611939069       -0.40382700823161
C           -0.78481571842014        1.00689755410395        0.04769483690324
C            0.06970727436624        2.08788307827232        0.20742869725838
C            1.41894577013767        2.28997933940245        0.43497588988460
C            2.55612076596809        1.48829273222424        0.32671637518259
N            3.73270025586038        2.10611705842032        0.60531533605966
C            2.67119379500861        0.13913734879014       -0.10310148997773
C            3.84695313244895       -0.38575836341538       -0.67882896218201
N            3.75775756040670       -1.68840067234892       -0.92604167865581
C            2.57043770966154       -2.07319753749258       -0.45393297585642
C            1.81380717850929       -0.99780384486727        0.04111380727936
C            0.49275672879577       -1.21323721353895        0.53205222780928
N            0.30972596147889       -2.41162488363369        1.13651420218075
C           -0.64697151433747       -0.43171980566024        0.28805553973124
C           -1.94477993266214       -0.98593797383422        0.22584123991649
N           -2.31813569606261       -2.30926028206815        0.36067546520936
H           -3.74330764519632        2.41516396486859       -0.68570152175040
H           -2.23289370609410        3.20187174525824       -0.79102132336795
H           -0.47036421669570        3.03087469433664        0.19328468302615
H            1.66101846482110        3.32293836805069        0.67100204693807
H            3.76291416548335        3.10222579578767        0.73721024710392
H            4.59532924600417        1.61530812936821        0.45360504606614
H            4.72634076524574        0.15120012429828       -0.99221015128409
H            2.25393599217110       -3.09569536493701       -0.56939903555119
H            1.11902917105125       -2.96976310871941        1.34597071407730
H           -0.55321387698484       -2.60222338894745        1.61679093733746
H           -3.27630998900098       -2.47509817446873        0.07945976788368
H           -1.67675065954390       -2.98298424061364       -0.03537540463344
