30
 energy: -54.900261247312 gnorm: 0.000668609822 xtb: 6.6.1 (8d0f1dd)
N            4.97462534982985        1.82062622268620       -0.01769305461943
C            4.16281926032121        1.00281011652326       -0.01386359790097
C            3.19379457663353        0.00520899020699       -0.01269424769897
C            3.46712486936538       -1.37960563575535       -0.01387719487422
N            4.69103792478605       -1.93459293640984       -0.00654056744124
C            2.23949285633623       -2.06370303228818       -0.01286918776325
C            1.18321088159132       -1.15788039846503       -0.01107680878677
N           -0.04164377388615       -1.63093916218048       -0.00899996057977
C           -1.23617647616317       -1.13336218237162       -0.00532595437707
N           -2.24729841263178       -2.02841407457539       -0.00082003697311
C           -3.39418915183441       -1.36144299128028        0.00298970201117
N           -4.58192714874160       -1.97880254528781        0.01040526558158
C           -3.18779678704939        0.05409597499829        0.00084693482085
C           -4.19391960041339        1.01025902529568        0.00395486633176
N           -5.04201536657925        1.79027020303052        0.00739416272180
C           -1.79644467691179        0.25951405421311       -0.00498566529687
C           -1.26778219892760        1.54048583536578       -0.00804766333512
C            0.01251509990047        2.09193138584330       -0.01343680872897
N            0.04584718927366        3.45858469338249       -0.04355459886344
C            1.29190783279600        1.49272075464424       -0.01358076923819
C            1.78392963280028        0.21406842948969       -0.01217437606254
H            4.79451296839267       -2.93245521429113       -0.03757046738997
H            5.51010173953813       -1.35303696754300       -0.03375048372563
H            2.11371637272328       -3.12895022160185       -0.01286998551734
H           -5.43541664996799       -1.44985934086785        0.00527118717048
H           -4.60280065159183       -2.98266839264927        0.00517733735007
H           -2.04763947172512        2.30018803378440       -0.00779687400752
H            0.91843977795296        3.94795505933104        0.04090715355744
H           -0.80441084941956        3.98652641150971        0.03725114337535
H            2.08581093620107        2.23777827676057       -0.01732898884193
