28
 energy: -55.462736494155 gnorm: 0.000755180879 xtb: 6.6.1 (8d0f1dd)
N           -3.58348930368833        2.98778554173945        0.45134646166517
C           -3.15369830242510        1.92932029504463        0.31595862858300
C           -2.73854027463803        0.61296672326278        0.12110739464516
C           -3.60897458870480       -0.40770461006020       -0.41635827400948
N           -4.89067057240062       -0.18417958428406       -0.72993743180463
C           -2.89595844562996       -1.58964844704122       -0.53829319724662
C           -1.59367446144172       -1.40231104497878       -0.05630415503824
N           -0.73813880007398       -2.36638340185433        0.04970292413008
C            0.54488116242262       -2.37170614109317        0.39112473210210
N            0.95250365311716       -3.45163512431239        1.10274557538694
N            1.50468596277489       -1.58359880267451       -0.04755063334802
C            1.65177377147945       -0.30095931877974       -0.11994672783168
C            2.79971327644473        0.39143324554246       -0.52657732395540
C            3.88141160393333       -0.05845061038385       -1.27278350940941
N            4.79766820258280       -0.38389780279740       -1.88896215865998
C            2.71880604356350        1.66398464946375        0.12342558579871
N            3.66744312641193        2.60056052710399        0.10826610011034
N            1.57274338125192        1.85020173426173        0.79187455448491
C            0.80738848805391        0.77765920463197        0.56882333706743
N           -0.47350543679519        0.83026686340001        0.71335518372463
C           -1.47702709089864        0.07124002021216        0.34391650981321
H           -5.28905595296577        0.72956103726214       -0.59210731977374
H           -5.45867598884547       -0.91664779722230       -1.11676361557146
H           -3.27849216021876       -2.52628813889499       -0.89440517091110
H            0.30556857678816       -4.21150238189593        1.22258526035880
H            1.93889751751902       -3.63919647007094        1.15428486011398
H            4.49263457457246        2.48300326509505       -0.45347320811242
H            3.51304328951205        3.45080497362168        0.62143013869122
