37
 energy: -76.923022657254 gnorm: 0.000734815079 xtb: 6.6.1 (8d0f1dd)
N           -2.69319353669470        3.90786799427424       -0.66686587952864
C           -2.00104884577092        3.00835915280235       -0.49569772508134
C           -1.09755152231036        1.91784286465208       -0.38092450160374
C            0.21655326142163        2.25967022191963       -0.80391741807252
N            0.32970133268432        3.36221571391351       -1.57904910254010
C            1.43128708964835        1.67978656470132       -0.34905682638768
C            2.53069564989637        2.57359786606062       -0.45409880656782
N            3.39088935570597        3.31463387082329       -0.62158210545859
C            1.77940674644221        0.40996908255302        0.12514433672112
C            3.04704265199942        0.15289411893439        0.69686483438954
C            3.94568486500284        1.05038584608367        1.28170961837836
N            4.71764791602957        1.69052889343116        1.84262724849786
C            3.29347423677546       -1.23992772778441        0.67506638281259
N            4.37868953312508       -1.86122350321138        1.13899054667884
C            2.16685661746499       -1.86822941032069        0.07357104492400
C            2.10093725877405       -3.26096152065863       -0.03270574653603
N            2.17787327740413       -4.40740325675066       -0.03682085379339
C            1.18122303441555       -0.89571554983389       -0.18635535959559
C           -0.11486898996870       -1.25968504337989       -0.58055636598294
C           -0.21364109894805       -2.51171474035596       -1.24281295791218
N           -0.27758034920902       -3.41920493143131       -1.94104028620071
C           -1.33841169415174       -0.66034711037318       -0.24908539006914
C           -2.50065260245259       -1.43143393695243       -0.04990954959510
C           -2.69705072587179       -2.80944450119640       -0.18306699073936
N           -2.99421087495280       -3.91896230956150       -0.21599123557382
C           -3.51362482625532       -0.60829623551198        0.51815328273225
N           -4.71590685966281       -1.01874322581103        0.92442238506607
C           -3.01006063990391        0.71187373204422        0.57906012809376
C           -3.74801852288042        1.75441061351697        1.14769921875572
N           -4.41284382699015        2.51909324659209        1.68975076903035
C           -1.69420892208444        0.73228357271235        0.05977225456649
H            1.23685869872950        3.75746775324610       -1.76781501340897
H           -0.48296376733880        3.91875980553573       -1.79007029066009
H            4.45978700602961       -2.86180854355435        1.06215987151482
H            5.11279873642109       -1.33396545453222        1.58221395769013
H           -5.35541642884377       -0.36804744576334        1.34980026357820
H           -4.98092767331486       -1.98474987680362        0.82326894799702
