27
 energy: -50.936530724069 gnorm: 0.000615052303 xtb: 6.6.1 (8d0f1dd)
N            4.38665833643622       -1.07248553207115       -1.64440958605443
C            3.54125917104975       -0.51162637705345       -1.09995201276472
C            2.55673869671418        0.22082907778525       -0.44435493119384
C            2.72892060220857        1.52607783756756        0.06381857992475
N            3.85043823542038        2.25206613339021       -0.04669560037242
C            1.53310386710430        1.94801672904494        0.69211472651930
C            0.57002621705051        0.96244238816716        0.57546130953980
N           -0.70043677308677        1.21781806848906        0.79685255944049
C           -1.79632114820325        0.61059095910195        0.45513124118425
N           -2.93153265748788        1.30951122341664        0.43828907558658
C           -3.84624558362228        0.57179137886781       -0.22369858418056
N           -5.08148528374097        1.05540911627584       -0.40964648117866
C           -3.35790680000872       -0.68162768397181       -0.64227774053437
C           -2.07080166679009       -0.78040044051279       -0.14493001376294
N           -1.38373877156209       -1.88665549661948       -0.03584693825381
C           -0.15203000510466       -2.12615444089380        0.33609675977056
N            0.06578240506869       -3.28652166114710        1.01043802617422
N            0.95567777618240       -1.48727112203453       -0.04220681461359
C            1.27683433954589       -0.24277197149364       -0.04583533132615
H            4.64342534119107        1.87724531375281       -0.53879758533922
H            3.91376952393806        3.16077179857127        0.37583643071035
H            1.36533187525495        2.92071281727241        1.11291124128423
H           -5.75042541801790        0.56305660887605       -0.97243439043946
H           -5.29277720639362        1.97034758051314       -0.05320039984229
H           -3.91036189181862       -1.43989472049009       -1.15964285269552
H            1.00464963187126       -3.64673416783757        1.02456761249526
H           -0.69844533409619       -3.93694256066304        1.07278120102321
