34
 energy: -56.978946521470 gnorm: 0.000832426965 xtb: 6.6.1 (8d0f1dd)
N           -5.64581073187831       -0.37363541979258        0.01489286472764
C           -4.50408267033559       -0.23683302478690       -0.06591631242426
C           -3.12551437750131       -0.07406703872583       -0.13205817573114
C           -2.44404742979581        1.06497623583210       -0.58546687219357
N           -3.05815787308364        2.16155626408434       -1.10224789323134
C           -1.04892307759794        0.86348535460520       -0.37467143593681
C           -0.16495102198245        1.92511723781651       -0.43938483568250
N            0.93934811645362        2.15118361231599        0.21797768254855
C            1.92292724626615        1.42984819730550        0.67869662848332
N            2.71706510818722        2.06758481745041        1.58961022922050
C            2.38978101298932        0.19795213846928        0.14844317075925
C            3.75046113582682       -0.08284446338702       -0.07029583384014
N            4.82592780042674        0.75122527470471        0.19889036290281
C            3.85584102168903       -1.36662544411984       -0.62782260894183
C            2.59424560768915       -1.91245006864532       -0.69254777661693
C            1.63337383389804       -0.97500868535812       -0.22770768986378
C            0.28573832255470       -1.33099031947573        0.00349114596533
N            0.05728908935686       -2.67890484513065        0.12381768769501
C           -0.86872298069661       -0.51370770682769        0.09621518151241
C           -2.16605997341674       -1.02955166530749        0.29236533111690
N           -2.53688191797547       -2.27274612184399        0.76578149047948
H           -2.54025197854368        3.01628111622886       -1.20141327805698
H           -4.05101196913606        2.24498287836856       -0.96201612251412
H           -0.51064672662768        2.81581547530418       -0.96364119906300
H            3.37191230286427        1.51356401737656        2.11420524100898
H            2.34455525468226        2.89745221619188        2.02039377584438
H            5.64414031441015        0.53758068102186       -0.35426291448880
H            4.60111686885840        1.73694886101071        0.19671432319752
H            4.77130821244244       -1.83271014298784       -0.94505451629327
H            2.38930496544869       -2.88352145938027       -1.11108926829786
H           -0.83506348258475       -3.03112960678534       -0.18886345034127
H            0.84982722638607       -3.27607278378208       -0.04310772404409
H           -1.95307191787675       -2.64815079347744        1.49960887424324
H           -3.52649806419798       -2.34578052137044        0.96155140195571
