25
 energy: -47.485837104937 gnorm: 0.000652550815 xtb: 6.6.1 (8d0f1dd)
N            4.36115897146461        1.51511806104277        1.34947791457901
C            3.52532288162734        0.88325262930334        0.87362496257851
C            2.55119467737607        0.05519647775334        0.32168191681794
C            2.72230753117220       -1.31884694582542        0.06074995182078
N            3.83623328249073       -2.01882002602128        0.31110845246833
C            1.52339867060228       -1.84635553550231       -0.48488899499098
C            0.56999896417215       -0.85326525513935       -0.57134196794260
N           -0.70312073169387       -1.13664134727150       -0.74615957829877
C           -1.80250382986593       -0.49899075459472       -0.51109259132520
N           -2.94744096328647       -1.17054403661402       -0.39225361176215
C           -3.82160626099874       -0.36011037723655        0.23475453191007
N           -5.04535557377829       -0.80570720787331        0.53948672994891
C           -3.30452601176597        0.92820115811054        0.50185318937784
C           -2.05242340359151        0.96704804517967       -0.07918762363514
N           -1.38291870826790        2.02172152576279       -0.44614591740697
C           -0.16585725896131        2.22425675418840       -0.83423832767179
N            0.94522847760756        1.66459598246211       -0.39584763719057
C            1.27903076784720        0.44776550846857       -0.17066241580468
H            3.89772157307001       -2.98914597152339        0.05903003699986
H            4.63320661708855       -1.56194349098306        0.72101396362188
H            1.35585775435410       -2.87966071381989       -0.72094019586902
H           -5.69722999132469       -0.22814531633351        1.03793002330630
H           -5.30360742535752       -1.73289319618789        0.25041719576739
H           -3.82386805156038        1.73514685493221        0.97874173785579
H           -0.01032492542081        3.10623358891910       -1.45051315185190
