23
 energy: -43.245226651642 gnorm: 0.000743447284 xtb: 6.6.1 (8d0f1dd)
N            4.45020329189480       -1.20759558849939        0.52415064469157
C            3.25616493112111       -0.69775039932328        0.20405671254469
C            2.14898766428026       -1.43286960153442       -0.31970693767448
C            1.13143028813458       -0.53301037974399       -0.51670994245101
N           -0.09389182554713       -0.91954314466501       -0.83519170272632
C           -1.26865182822150       -0.45805683657537       -0.61943702938327
N           -2.36335273721078       -1.21568967678813       -0.73799040776420
C           -3.30135658215666       -0.65765275095122        0.04397328294859
N           -4.49164135526772       -1.25154317088367        0.18939782491470
C           -2.90140883604447        0.56506920842088        0.64286512033327
C           -1.66531790540233        0.85863530921138        0.10776205959509
N           -1.10443689897104        2.01164234570713       -0.08300791332401
C            0.05859094949024        2.43582823488993       -0.46087208158615
N            1.25843074190736        1.99595790072322       -0.13919319950802
C            1.74314438264731        0.81024050877683       -0.07299498107937
N            2.99097441976053        0.59501893942620        0.37506535587415
H            5.16319217673637       -0.58442780826160        0.86074542359424
H            4.66056018930960       -2.17431859202053        0.35635308484258
H            2.11975423140748       -2.48780589972085       -0.50541134129967
H           -5.18379862168901       -0.87972118257654        0.81311200989939
H           -4.67199311131079       -2.09412074332201       -0.32678185193966
H           -3.49733682738279        1.17714903931391        1.28999457645612
H            0.05535261951456        3.40703245789683       -0.95200395375876
