28
 energy: -46.650364360354 gnorm: 0.000439875717 xtb: 6.6.1 (8d0f1dd)
N           -0.05977260526705        3.40952211186446        0.00956591790226
C           -0.06172267131737        2.26139837207794        0.01657409134761
C           -0.04497987311602        0.83746189380716        0.01703299919156
C           -1.31948493309213        0.27524997555765        0.01156919239675
C           -2.46105660764512        1.09812696600792        0.00852133425626
C           -3.61016731244773        0.31137355399096       -0.00721546147082
N           -4.89171864404955        0.75710902299905        0.03590098245010
C           -3.20693602653324       -1.03839990479898       -0.01130357491054
C           -1.81715596594220       -1.12340062886852        0.00002685740757
C           -1.21656419193166       -2.38323862542381       -0.00185207974468
C            0.07101013693638       -2.87925186231548        0.00323836458886
C            1.33798306548810       -2.31087814134802        0.01025302423872
C            1.84754898308994       -1.02517227891674        0.01448792264854
N            3.19632214718898       -0.94307973092560        0.01232173494984
C            3.52580511200309        0.35101584570762        0.01670121663461
N            4.81634550099374        0.75206463770546        0.06637183275946
C            2.38455320337649        1.17760914767442        0.01990759151951
C            1.27464846021136        0.33493088208838        0.01769697216441
H           -2.45100852898097        2.17183673006059        0.01640230412310
H           -5.63245423739572        0.11360388154006       -0.18192678584274
H           -5.06294880731783        1.73124879928599       -0.14397927189893
H           -3.87689029524448       -1.87923953153602       -0.02164386177123
H           -1.96793064433364       -3.16854199977997       -0.00827570706876
H            0.10348516195349       -3.96396640531358        0.00136008394269
H            2.14804645306045       -3.03253505624033        0.01239049709547
H            5.03716623193717        1.70656904789131       -0.15563985209930
H            5.51854927658455        0.05126137298468       -0.09596149366773
H            2.38854873319101        2.25001886762341        0.02376228375744
