20
 energy: -36.063417914974 gnorm: 0.000341120587 xtb: 6.6.1 (8d0f1dd)
C           -3.35085778374740        0.85932039575171        0.26132740957816
C           -3.00601293857191       -0.45391413071808        0.55913534165749
C           -1.70161174286622       -0.63288170233240        0.07437338258472
N           -1.15328393605616       -1.78894468285346       -0.17332590414217
C            0.04464826336933       -2.16680400646362       -0.49676070445559
N            1.18475935400174       -1.70365520845828       -0.04963934724141
C            1.66628297724856       -0.53650458668006        0.19127888885926
N            2.88638108261432       -0.41818502462134        0.76830564764543
C            3.29740957622025        0.81409738985637        0.54176070660795
C            2.34767416181879        1.61059451868127       -0.12982706455427
C            1.22463373396288        0.81572450139789       -0.31910905137209
C           -0.05046344089484        1.30090314605211       -0.60110804812625
C           -1.29437595549800        0.74296513829756       -0.38670060481885
N           -2.36314159297778        1.55199563012438       -0.31305807180558
H           -4.29820663720558        1.33658921820843        0.44118223669264
H           -3.62784720797332       -1.20992193539991        0.99386288751890
H            0.11043673189929       -3.11581915505872       -1.02204648365756
H            4.27497080626387        1.12283796493120        0.86886587740305
H            2.45876862173819        2.64460424438205       -0.39261757769493
H           -0.09701671704623        2.36437515210293       -0.81220047587901
