30
 energy: -45.280872070865 gnorm: 0.000668915880 xtb: 6.6.1 (8d0f1dd)
N           -4.27072113061762       -1.25801313372470       -0.40058141477407
C           -3.39393906611176       -0.21903543420423       -0.20644826014784
C           -3.78617397309390        1.11866012824557       -0.06446584665364
C           -2.65829059828566        1.87654168516986        0.17156793624400
C           -1.51004678109281        1.05152721969697        0.17195368838092
C           -0.25400344805293        1.61494852348525        0.29027077869518
C            1.05582438461636        1.17121992329074        0.17417785318525
C            2.07854298671657        2.14694054722063        0.09983312250400
C            3.28837066118012        1.54219571714534       -0.15054991041986
C            3.08182659732490        0.15711255759950       -0.18903955840133
N            4.11017445055163       -0.75251222927781       -0.43384524073643
C            1.71044459185357       -0.12602916937398        0.04469444592616
C            1.23345172571287       -1.43505462497187        0.27862418774761
N            2.20612151471993       -2.37466708466127        0.52219069039270
C           -0.05710494913687       -1.98977348840461        0.22207443509266
C           -1.34360233337543       -1.54058440743674        0.01015885783998
C           -1.98199910685584       -0.31103798821805       -0.04140528115729
H           -3.90977973635523       -2.09853469530401       -0.82134361036813
H           -5.18914792966047       -0.99453421878649       -0.71980808380287
H           -4.79744567575491        1.47798623129683       -0.13525494035301
H           -2.63881341493324        2.94278204358800        0.31199945344482
H           -0.30309988339354        2.69387095089864        0.42069305063807
H            1.91075196118700        3.20564754618389        0.18432780390833
H            4.23563063243841        2.02912601522140       -0.30120073080120
H            3.83860216043562       -1.53881704620430       -1.00991658051324
H            4.93881375422572       -0.29566117603702       -0.79255177253352
H            1.90568688558522       -3.27594803476937        0.85549001937508
H            3.09704124864318       -2.04693112769962        0.85847311014030
H           -0.01929266625460       -3.07048877892894        0.34549293962869
H           -2.04226294401666       -2.37031616563932       -0.07111471938137
