31
 energy: -49.007552712848 gnorm: 0.000648264223 xtb: 6.6.1 (8d0f1dd)
N           -2.37725763459858       -2.92565162385208        0.54237616424557
C           -1.45954151541832       -1.95554018884870        0.22365957474032
C           -0.17105987432998       -2.47622907883128        0.01775234555851
C            1.08946308914486       -1.96302063780527       -0.20190198206434
C            1.65824081301871       -0.70168443811781       -0.12977159844964
C            3.06085126036831       -0.49963559403292       -0.23322222316301
N            4.02584337187101       -1.43422842004408       -0.45975306308145
N            3.42847907552824        0.77243328276059        0.00748473517294
C            2.30032623881556        1.44512796701574        0.24696716535977
N            2.34858488989891        2.78880368835202        0.47910052248475
C            1.13086653341244        0.62707842168162        0.14838290197596
C           -0.13285493242056        1.17046717248210        0.15699566464393
C           -1.41943738587032        0.66681878692516       -0.00457313600638
C           -2.50587634650674        1.57930730022553       -0.18469827638854
N           -2.42845911476071        2.95377890286204       -0.23867424575463
C           -3.69586930355382        0.86046974850873       -0.27330147766308
C           -3.39363594508038       -0.48133694724618       -0.12372787530834
C           -2.00232547977654       -0.66157916030901        0.03150476133020
H           -2.04338137168804       -3.84629784441055        0.76712190391674
H           -3.26146224028533       -2.65358510654861        0.92934153009841
H           -0.17438036636727       -3.56380668612359        0.04657663512203
H            1.82427120165993       -2.74241410101910       -0.38711994973349
H            4.93479849411001       -1.05074837620367       -0.66161510275661
H            3.77022102218747       -2.26030686861299       -0.97407738769225
H            1.61435821406164        3.18761321792539        1.04109873652771
H            3.27545852487073        3.13541940870110        0.66966580358918
H           -0.11845172294764        2.25198348125882        0.26450151993572
H           -1.56491575153291        3.34671364886103       -0.57885940354554
H           -3.24982813815332        3.40130260204405       -0.61494942048752
H           -4.67231019588695        1.27910324911076       -0.43913830863279
H           -4.12936452957065       -1.26265606480893       -0.20109941347429
