31
 energy: -59.412119163353 gnorm: 0.000514203367 xtb: 6.6.1 (8d0f1dd)
N           -2.28281935128837       -4.15664788014870        0.37817433937587
C           -1.63525684434292       -3.22455716357761        0.19170913956289
C           -0.79425677827140       -2.12178884018568       -0.06501915075618
C           -1.32453859876747       -0.86725344912683        0.19317683407962
C           -2.64951147801589       -0.73055658477087        0.65461396538198
C           -3.05849267556339        0.58154555126378        0.50377248409889
N           -4.25458162843499        1.11744961826759        0.78818836004682
C           -1.95007159613199        1.33743185963727       -0.02690686140667
C           -2.10631472143622        2.70721089358472       -0.23865028343834
N           -2.43353895674983        3.80464146239227       -0.35599323238944
C           -0.84125840070554        0.49594509124022       -0.16243693348933
C            0.44510023447610        1.00212904573628       -0.41665965777198
C            0.53044500812190        2.37162364732182       -0.79199664665909
N            0.64717323961942        3.44240768515487       -1.18447928975197
C            1.71015775095212        0.46872089936099       -0.15636290888886
N            2.72726141502858        1.31019349913160        0.03989948754107
C            3.75827814217133        0.58210402052278        0.51952015280159
N            4.89896028914281        1.18963962778753        0.86479906317016
C            3.46408113723887       -0.79544552388774        0.57465275170505
C            2.17409809891267       -0.93207708929601        0.08628821342446
N            1.65200592946821       -2.06338886391613       -0.32605062371272
C            0.48214353260994       -2.51988482917808       -0.62494831564268
N            0.46402348633683       -3.60027419714101       -1.44705451759060
H           -3.26280749541474       -1.54087589931856        1.00010798762786
H           -4.42029280493718        2.09238477209559        0.60364724799934
H           -4.98892390881221        0.55298337505879        1.17507177748055
H            5.65788531730301        0.67790782363387        1.27557429483435
H            4.96447209989946        2.18446281848565        0.73892166315736
H            4.12672154174736       -1.58217190998646        0.87196654809746
H            1.34924597390613       -4.00524974726924       -1.70094487022453
H           -0.36348495746262       -4.16740395617347       -1.52061106416304
