31
 energy: -59.420577310192 gnorm: 0.000803108021 xtb: 6.6.1 (8d0f1dd)
N           -2.92558056729579       -3.33086181273445       -0.04440557200447
C           -2.60901978299970       -2.22657853236379        0.02071808586777
C           -2.42853337367216       -0.84527913882703        0.03229819815296
C           -3.54041921908455        0.03697217893708       -0.15967451709187
N           -4.81353803649568       -0.34174619840655       -0.30577071964694
N           -3.15681171084109        1.30939964623313       -0.17275926505724
C           -1.81258267577629        1.34458987017354       -0.03248943360872
C           -1.27910633248297        2.61173391000021        0.06005667182605
C           -0.00197728095818        3.18197712747354        0.14460061403356
N           -0.00159370006607        4.53590654929756        0.29837650786985
C            1.27387573994032        2.61479334962045        0.02681277065849
C            1.80780726638936        1.34892780684579       -0.07962698126179
N            3.14802483659973        1.31697183738973       -0.25484551583739
C            3.53491347469836        0.04547693060272       -0.25180332388384
N            4.80473374688593       -0.33015450991296       -0.43098404527700
C            2.43053352274342       -0.83945933894370       -0.03101813580335
C            2.61397670340851       -2.22031867359599       -0.04744189879433
N            2.93155121175953       -3.32385385665685       -0.12039170317279
C            1.28646228604971       -0.02970329058435        0.05886055269874
C            0.00416534191016       -0.55496100107877        0.27106061625409
C            0.01176959582922       -1.89819736392785        0.73620644097597
N            0.01980702788270       -2.92798380754506        1.24166465071814
C           -1.28448340717756       -0.03278967036768        0.09234166930274
H           -5.51976542689431        0.35428798541663       -0.46281721262058
H           -5.05058535220124       -1.31848530527758       -0.29365443442246
H           -2.07802606331416        3.34726127905789        0.03921840634424
H            0.86205021189618        5.04621251302365        0.32609946730447
H           -0.86544139764866        5.04414476960220        0.34862785347276
H            2.07021838645995        3.35223009758395       -0.01479972281856
H            5.04439309032716       -1.30631299756653       -0.42510480339285
H            5.50493511831646        0.36759311298267       -0.60632965158347
