21
 energy: -44.579842472982 gnorm: 0.000827483753 xtb: 6.6.1 (8d0f1dd)
N            3.51996939944269        1.74200999935834       -1.21939132793191
C            2.55534581786797        1.24054075874701       -0.85149355131908
C            1.33594315637487        0.69964762901934       -0.38397009119575
C            0.39547385215375        1.68692512734262        0.15261853341769
N            0.95270824283143        2.77280172030086        0.71288556557581
N           -0.89053142167337        1.68387846854806        0.04520617080696
C           -1.90207591805056        0.88518672744758       -0.02110627211345
N           -3.10141623852150        1.24425415472492       -0.45177363517098
C           -3.82993280763007        0.12085513469121       -0.45227711211710
N           -3.20715173228247       -0.99930245462962       -0.12096467583152
C           -1.96351760771095       -0.63307262072022        0.20917577203390
N           -1.02465215731433       -1.46504451622276        0.47409274756175
C            0.25215849797790       -1.56706241436313        0.42005911072245
N            0.93153484459803       -2.65371729936195        0.79397542931132
C            2.12623386247431       -2.53798796454675        0.20944453964997
N            2.35703324554026       -1.43576914637277       -0.49102506159654
C            1.27044307699551       -0.67086745911646       -0.29997472707385
H            0.35201253063208        3.51807636083526        1.02747792400435
H            1.94776031999669        2.92243793843841        0.66873810536028
H           -4.87286217141140        0.13302604646775       -0.71132341440396
H            2.86523987490976       -3.31355374068825        0.29619671140959
