25
 energy: -47.486967137217 gnorm: 0.000960725420 xtb: 6.6.1 (8d0f1dd)
N           -4.36384976556633       -1.57289641643945       -1.32321353084484
C           -3.53437173784826       -0.92566769422064       -0.85588841405843
C           -2.57833190196982       -0.07741436166926       -0.30412246527625
C           -2.80051093028181        1.30488376355125       -0.03480147120148
N           -3.95306689247865        1.94151495223671       -0.28366192633442
C           -1.63580647150058        1.86942587852367        0.50396569010040
C           -0.62926557812535        0.90699405015572        0.55524514823363
N            0.62334732535784        1.22910444080516        0.70117300267044
C            1.75765717826172        0.61855649357002        0.44958192974979
C            2.96020513511264        1.27820424195627        0.27873084985354
C            3.83197934684126        0.36488632239137       -0.37108028493535
N            5.08072196517115        0.61779315626091       -0.77595134336114
N            3.27791748437802       -0.83707113811507       -0.59318609833923
C            2.07354654437800       -0.81694785221194       -0.01625829880343
N            1.43317980843457       -1.88977197804661        0.28272564625120
C            0.24778086109769       -2.12676825065763        0.77793623365018
N           -0.89987501599690       -1.61887839967375        0.42256836674164
C           -1.29904720912761       -0.42002703759760        0.16165131367192
H           -4.72327879389829        1.43992978228905       -0.69223983542490
H           -4.07021807545534        2.90662291823539       -0.03213472629459
H           -1.50739182905201        2.90156030381814        0.76678430568551
H            3.17589085026785        2.29996616358161        0.51747352535635
H            5.53513373413429        1.48215307776894       -0.54435919730887
H            5.59457547687224       -0.11900649157901       -1.22682326746433
H            0.18412019519458       -3.00012963163447        1.42300596128254
