22
 energy: -43.527975909817 gnorm: 0.000683954078 xtb: 6.6.1 (8d0f1dd)
N            1.00846752622504       -3.20668642821356        0.62317677707128
C            0.62379673224085       -2.04894495275402        0.04063894100727
N            1.59274162121617       -1.32485775005730       -0.50283766293548
C            1.94419586612225       -0.09187016725295       -0.42325298805041
C            3.13485947149324        0.51340275058160       -0.84922190449767
C            3.35200023010463        1.54429468459547        0.05453618572142
N            2.35664475551046        1.76662847317629        0.93168927669578
C            1.37654691140919        0.93212076677563        0.59775499259812
N            0.13162918284411        1.12799445430237        0.84555600297725
C           -0.98792181542699        0.61227210907389        0.42248498772165
N           -2.06750920053037        1.36192114455096        0.27560004468972
C           -3.02701301718276        0.52641758643710       -0.18938361524647
N           -4.25714632337935        0.96402316258376       -0.43332180981753
N           -2.66244678150493       -0.74729498728560       -0.40403062304538
C           -1.38504431137334       -0.80767079316005       -0.05060235039891
N           -0.67891826945631       -1.88822008551529       -0.11998388389208
H            1.96801395987723       -3.49633005221133        0.55171591843848
H            0.29853527837577       -3.88736379777132        0.83135315033968
H            3.80105976364010        0.16874247918591       -1.61311995776998
H            4.23159051710324        2.16356873550419        0.10902989495067
H           -4.95245193560426        0.31966483972137       -0.76516112203312
H           -4.47684233930388        1.92682553603269       -0.24886308702423
