29
 energy: -55.962224188601 gnorm: 0.000456907794 xtb: 6.6.1 (8d0f1dd)
N            4.89696957445117        1.08384938774595        0.61573828881306
C            3.80784641058089        0.79323014215696        0.39914566713513
C            2.45421161766977        0.53934004077131        0.07890868510021
C            1.77006802948692        1.65255889102844       -0.54579005394786
N            2.51794834244173        2.45155588318561       -1.33955646570398
N            0.56130584711854        2.04056079675598       -0.31272714865888
C           -0.60065780413726        1.56239144500454        0.05344682826477
C           -1.62596806451196        2.39572909246323        0.49612399736257
C           -2.83596900992555        1.69630907584383        0.44847786560757
N           -4.05145439327222        2.15320515744976        0.77625736663658
C           -2.58032706684645        0.37398618271973       -0.03342151740789
C           -3.62341762830723       -0.53824540238607       -0.18390246915458
N           -4.58174295696464       -1.17189410849675       -0.25580333256198
C           -1.18855954266011        0.21581444297179       -0.19348737760379
C           -0.55945612932512       -1.01217670378895       -0.37721775279669
C           -1.40255537433719       -2.08029770361047       -0.79059033801392
N           -2.02352023333494       -2.95083318801025       -1.20443810370660
C            0.74437571522298       -1.44202588501603       -0.04787463727066
C            1.06512119695062       -2.78457721667909        0.14357898560717
C            2.35589446463638       -2.82192530727851        0.69801315176775
N            2.88808888691212       -1.62301072368686        0.83183361581916
C            1.98898348119830       -0.72901212821069        0.34288128289214
H            2.11323462258132        3.31197097501369       -1.66820842887254
H            3.51596445932252        2.33178336559511       -1.38196513022632
H           -1.50370958410320        3.42437270528892        0.77324069022684
H           -4.16964530526001        3.08121404912208        1.14099853451832
H           -4.85500966379954        1.55809244543711        0.66418031510491
H            0.42564024531018       -3.62726193162316       -0.03093795053549
H            2.90230236811785       -3.69614377150031        1.00283430919364
