28
 energy: -55.464683058918 gnorm: 0.000926868378 xtb: 6.6.1 (8d0f1dd)
N           -4.69360128858404        1.71839785099894        1.35169204769319
C           -3.92317614455672        0.99244820261764        0.90124036902208
C           -3.03358686751775        0.05942971251673        0.37171086424817
C           -3.34764540012551       -1.28747171663684        0.10532500932712
N           -4.52670271099064       -1.87005138298801        0.34647373162499
C           -2.20863542703682       -1.92920298939258       -0.45058177994983
C           -1.16279360565296       -1.03714765430282       -0.54362073518194
N            0.05264680816980       -1.45621510158487       -0.83881606701073
C            1.23486055992892       -0.99403018146891       -0.60229124721329
N            2.29771832754791       -1.80479081069204       -0.69853575750025
C            3.29801769385036       -1.23598527691107       -0.01936326378020
N            4.47946313973849       -1.83983407748519        0.11628539270478
C            2.96221029291700        0.04982052365440        0.51472744648046
C            3.82687019747962        0.85796524872744        1.24247370608653
N            4.57636516080986        1.48076627436759        1.85489387607001
C            1.67867253491291        0.32898156917542        0.03534816976890
N            1.14835415001967        1.50536505385794       -0.09184528999287
C           -0.01515424177280        1.93279618981377       -0.52208346021233
N           -0.01046993559742        3.07520232834638       -1.24945998317161
N           -1.21928060928942        1.49777680966343       -0.15306614370221
C           -1.71428835310122        0.31420166909992       -0.07894366211069
H           -4.67932773997677       -2.83403591989901        0.10781030628182
H           -5.27347014494278       -1.33857174023723        0.76158801893448
H           -2.14791134687625       -2.97037132824119       -0.70303397971853
H            4.62134149743370       -2.73201081409817       -0.32383762302680
H            5.20254411624712       -1.42432772687435        0.67718497517119
H            0.85410101343047        3.58372475506730       -1.32196701648073
H           -0.87697965256661        3.57731184910390       -1.34119368376077
