24
 energy: -47.762830444960 gnorm: 0.000750501866 xtb: 6.6.1 (8d0f1dd)
N           -4.28497195885763       -1.50317117417142       -1.00471128950965
C           -3.39667796840313       -0.86604292497468       -0.64805008566883
C           -2.35808220440679       -0.03835145194195       -0.23039718300815
C           -2.46875030265454        1.36303366899997       -0.00061236093064
N           -3.56259492524855        2.10391376595850       -0.16311129031413
N           -1.31240348430162        1.91368251495485        0.40783303463442
C           -0.39769268222244        0.95252218404468        0.48604759759916
N            0.82287031335473        1.27109707091804        0.80224236347356
C            1.99405665349596        0.80984541187785        0.51652945020919
N            3.12133028626325        1.47000395325985        0.73725750000579
C            4.03480578124790        0.97438494192977       -0.12641784987096
C            3.59396569368265       -0.07280523074824       -0.91307620227305
C            2.31797077500496       -0.39231462342808       -0.40808761753406
N            1.76183171435316       -1.54789956595920       -0.37262456277288
C            0.67480716667314       -2.02554063639176        0.22784061107908
N            0.82590606520359       -3.21425897410209        0.85289849790806
N           -0.56187080337151       -1.59152603916801        0.09131297715118
C           -1.04247930255005       -0.38486557032134        0.09744886956759
H           -4.42229133415297        1.68739788260024       -0.47681331573977
H           -3.51362577222628        3.08731247156870        0.04073206698444
H            5.01545260691898        1.41856262822815       -0.14499345983255
H            4.14876858541867       -0.61508472275197       -1.65082120445225
H            1.69765765112602       -3.70572377453932        0.76094688006983
H           -0.00262328244703       -3.72239206143793        1.11024219702672
