33
 energy: -53.245550618022 gnorm: 0.000696048212 xtb: 6.6.1 (8d0f1dd)
N            1.20271035750598       -3.99073677438266        0.63563125338875
C            0.77762972797596       -2.93266271742996        0.45868857249007
C            0.27119124959617       -1.63992797379197        0.25013627610516
C           -1.05342475631901       -1.44162778321095        0.67330717315366
N           -1.59015627320287       -2.37981386964895        1.48968120126608
C           -1.95594695624477       -0.47651068570737        0.15656315608830
C           -3.27823069714186       -0.84532485874261       -0.15455539034249
C           -3.92368872217506        0.23459117974630       -0.74015810381772
C           -3.05670798854631        1.31351366028372       -0.72302953426362
C           -1.81359729665469        0.91095840206410       -0.18637312602068
C           -0.80259503299167        1.85375690574930        0.14551130038143
N           -1.27593315049495        3.10738436387157        0.35234015289407
C            0.59080712098276        1.67990486113008        0.25510726448405
C            1.45741860314170        2.75719736519603        0.54830398678726
C            2.76625116055514        2.38146686443444        0.33229691892401
C            2.77797944798124        1.06433523031269       -0.12732869768247
N            3.95305619759132        0.36192608096314       -0.41935792050201
C            1.44352717778222        0.57784387403922       -0.15985647573685
C            1.19147116333448       -0.78312354818052       -0.42678850014916
N            2.06878023952326       -1.41136570038268       -1.23991002476159
H           -1.08835250111188       -3.23190475689776        1.68200340134884
H           -2.58127062818159       -2.35787532288253        1.65591373231794
H           -3.69170436914996       -1.83564424533369       -0.06639445666009
H           -4.92203451020518        0.23049412617318       -1.13893478311932
H           -3.28187672494071        2.27975472997167       -1.14181192866125
H           -0.65704109970817        3.89545031605404        0.38782914193950
H           -2.26404146805742        3.26868461089505        0.27980935092027
H            1.17626477615433        3.72922598275189        0.91215529701388
H            3.63894776427451        2.98940866237543        0.49140415156556
H            4.76723581728208        0.88060953951660       -0.11321682541290
H            3.97412467487498       -0.57941918267015       -0.04398436059598
H            2.03501700989133       -2.41030484826332       -1.35526996685495
H            2.77767420547618       -0.87635655390356       -1.71213189778784
