33
 energy: -53.245231402148 gnorm: 0.000634635549 xtb: 6.6.1 (8d0f1dd)
N           -4.49825741892058       -0.00390549589263       -0.15186987271635
C           -3.34577249768077       -0.02060568484957       -0.08954075674390
C           -1.94096668490755       -0.03546709164203       -0.02054015144675
C           -1.36956898477408       -1.24168661849599       -0.49396263699999
N           -2.19417061663512       -2.01988710282395       -1.24403538233022
C           -0.12141362868686       -1.82268968976130       -0.16899337305462
C            0.03954653700184       -3.21705163917286       -0.11303825887147
C            1.35111649414809       -3.53734865750327        0.21934009803375
C            2.07053581273703       -2.35542001803802        0.32290758843973
N            3.42304341837078       -2.26642001063527        0.57040010568860
C            1.18719886753436       -1.25079899404696        0.09081796800798
C            1.68861666909624        0.02934791946415       -0.05016967471404
C            1.12517988063185        1.29115186499908       -0.12967641341211
C            1.95417914938281        2.43527166840990       -0.35360428937838
N            3.28662832671878        2.40918448531569       -0.69837156468787
C            1.21053302393102        3.58609033511439       -0.11752905515552
C           -0.06345406968445        3.20357206603174        0.27556109299526
C           -0.18342130156101        1.80032357027611        0.24302982580463
C           -1.40884781515675        1.16556023722293        0.52964646108354
N           -2.27458180294602        1.86717496958066        1.30808785005572
H           -1.90132274968305       -2.94920877041356       -1.48501882407669
H           -3.16982653284804       -1.78709710182277       -1.32897286445922
H           -0.74242106499578       -3.95147021082379       -0.20713174696222
H            1.73917258555843       -4.52788115772322        0.37354689340807
H            3.83841924840725       -3.10768076060112        0.93920707407329
H            3.74301938910792       -1.42541015227551        1.02438242732654
H            2.77458930544476        0.05299865053662       -0.09012847637891
H            3.60070433006017        1.61062903780644       -1.22685897063457
H            3.65424274219156        3.28694731335564       -1.03048668348978
H            1.56090983785860        4.59626661324515       -0.22836899762959
H           -0.85555069937501        3.90682410457562        0.46848424773509
H           -2.03180852635359        2.79906250339988        1.59191649255405
H           -3.24275027647092        1.59460166458641        1.35293057083581
