29
 energy: -55.176283465499 gnorm: 0.000604925584 xtb: 6.6.1 (8d0f1dd)
N            1.56093178019408        3.49119750930033       -1.14822489338048
C            1.20842462888675        2.44880212758503       -0.82383659425002
C            0.72716276780602        1.15854509125905       -0.47404772974917
C           -0.66795361966407        1.11445232757536       -0.21997582688959
C           -1.44740785407316        2.24995813058260       -0.17343581574710
C           -2.72537072714058        1.85650441452606        0.33089422711743
N           -3.76397109547107        2.66674068764632        0.56522827665276
N           -2.78327174682592        0.55289252781414        0.57222631647876
C           -1.59093121884239        0.02299146495154        0.20667568146168
C           -1.52105420867954       -1.34915560624488        0.13043128624249
C           -2.69745229141988       -2.03596705692837        0.50556336169718
N           -3.61536155637628       -2.66451897815434        0.79272012920293
C           -0.46563171287530       -2.21485415133958       -0.36822665035570
N           -0.88873533131497       -3.31956397119366       -1.03597138548996
N            0.80416765473915       -2.13304294687922       -0.17327309609096
C            1.70601675312873       -1.21485868500533        0.10448647774489
C            2.98469645016941       -1.49748719289245        0.54275357831053
C            3.73622886924166       -0.30939601031767        0.36478585512484
N            5.04013984636101       -0.13770446484120        0.61820783187357
N            3.00304501835877        0.69261924046445       -0.13978697966664
C            1.73952272081876        0.24475429019908       -0.23550380446404
H           -1.14945275603106        3.25190085063145       -0.41175519567457
H           -4.61990632411729        2.26387649829173        0.90395052734418
H           -3.73344469156605        3.63313451729230        0.29630071612020
H           -0.20311734980870       -4.02298606936809       -1.25340478321996
H           -1.86011894038542       -3.57990127905620       -1.01244511838925
H            3.35484032388777       -2.44159065848639        0.88760209482926
H            5.57028318055003       -0.84185799666257        1.09762792678574
H            5.44116713745028        0.76832333414950        0.45086914167985
