26
 energy: -47.999812408189 gnorm: 0.000942325061 xtb: 6.6.1 (8d0f1dd)
N           -1.25024927234953       -3.50064984929012        0.02797172974063
C           -1.09241898968386       -2.36584766461526        0.01691494324213
C           -0.92680247133456       -0.94895962450362        0.00946683144812
C           -2.12244464621837       -0.21830892189197        0.00954352434530
C           -3.36374277427756       -0.85102347554307        0.01841307721907
C           -4.38674712892283        0.11137714763925        0.01838371306839
C           -3.81713247860811        1.36228367303041        0.00974298554490
C           -2.39920576035097        1.24371845164756        0.00316095239913
C           -1.62455074004350        2.37466428110709       -0.00981134658112
C           -0.23758204869871        2.66017213404489       -0.02366511823270
N            0.85582177611769        1.97404141379602       -0.02020610822833
C            1.15919633883651        0.68838529961619       -0.00544327291370
C            2.51477124810226        0.30648507969223       -0.00158915822301
C            3.64944538603131        1.11247192230563       -0.00977628342090
N            4.62897756884542        1.71488857264530       -0.01712512024412
C            2.53423158710754       -1.12305582151437        0.00871420574819
N            3.61964322535536       -1.90291960971172        0.02103284450496
N            1.30089029583698       -1.62109697431744        0.01092285068493
C            0.42332486926050       -0.59431502552863        0.00447948332019
H           -3.51326092042459       -1.91450592230653        0.02457240435028
H           -5.43889776055878       -0.10693279080888        0.02420294001193
H           -4.34074896802128        2.30022161784220        0.00727343289159
H           -2.21695344069907        3.28515577091375       -0.01256877561717
H           -0.02466565961776        3.72910249104787       -0.04025871481294
H            4.53953058910908       -1.50016991840682       -0.00293883712684
H            3.49689948562102       -2.90013129580231        0.01153973651039
