32
 energy: -63.943189396209 gnorm: 0.000823453426 xtb: 6.6.1 (8d0f1dd)
N            4.75289975924067        2.49407221185646        1.13284874743842
C            4.01521366049967        1.67187303542995        0.80988015697136
C            3.13351501494493        0.66828922949275        0.41578076357212
C            1.74759451137199        0.85682636772871        0.12052809668795
C            1.22044609381112        2.11173839864266        0.01573913965079
C           -0.06499808208485        2.55636392207671       -0.42417087686408
N           -0.10059601868879        3.77408402055177       -1.01464406382367
N           -1.23701906239354        2.02010467372638       -0.22829117185020
C           -1.75094106731369        0.84485777840882       -0.02764823056465
C           -3.10243807246489        0.67851069178414        0.33131229349078
C           -3.99411206248278        1.69099168744585        0.68517802547939
N           -4.75917195502865        2.49790194165890        0.97834270888099
C           -3.45102051285978       -0.69160050267720        0.20952483120538
N           -4.66109815456607       -1.21125494536210        0.43010103001773
C           -2.30046792216055       -1.41815476915004       -0.18797950148238
C           -2.30219749354610       -2.79757586929228       -0.39789281314322
N           -2.39181710839032       -3.93213784545092       -0.55936630837564
C           -1.19912127736979       -0.53731253845423       -0.26926230034083
N            0.01094538376309       -0.99751708948059       -0.38171476662073
C            1.21065807985514       -0.49894079735643       -0.21661764342231
C            2.31456272948537       -1.37038454772751       -0.22496459220856
C            2.31481432722392       -2.73291030286096       -0.52809479296477
N            2.41185878093426       -3.85141431724822       -0.77373405183345
C            3.49016022730838       -0.66682457506931        0.17380876493062
N            4.70818501471206       -1.20845686360663        0.28999204302082
H            1.92065252142848        2.91905614802500        0.20674262212318
H            0.72220027354176        4.34668929188174       -1.07487556986486
H           -0.99751984081905        4.17291679150829       -1.23349360875221
H           -4.81769883952686       -2.19601407955349        0.29399933098864
H           -5.41992442273531       -0.62238664989125        0.72925425075158
H            5.48573646658212       -0.65134345770611        0.59958942883008
H            4.84531698992598       -2.18349619923214        0.08469758587095
