29
 energy: -55.191270992988 gnorm: 0.000915262051 xtb: 6.6.1 (8d0f1dd)
N           -2.72432993887407       -3.47318863406641        0.63590684073170
C           -2.55222348596193       -2.35927453993819        0.40096935697586
C           -2.42241841232477       -1.00728922226132        0.10872277393767
C           -1.27606175571931       -0.19802811990649        0.13461266936195
C           -0.01441296589045       -0.72940186711306        0.39110452297136
C            1.26014382855226       -0.23113724010125        0.21840572048898
C            2.41615521841269       -1.03721451539462        0.17175508887068
C            2.56739435692498       -2.37555778021461        0.50834815799311
N            2.74531279323888       -3.48069874213070        0.77753436375802
C            3.44709960163727       -0.21522487422860       -0.37333362074873
N            4.69344168951512       -0.60730720950041       -0.65315272709565
N            3.03662908987258        1.04000620360959       -0.59008130288167
C            1.76180912517398        1.11848426606479       -0.18835659494764
N            1.23086268712765        2.29007482632600       -0.03219103541271
C            0.06897314387407        2.83641362540767        0.18656360303574
N            0.13505995530068        4.07513681573046        0.73326858048099
C           -1.22769220536038        2.39420250548760       -0.19714055432640
C           -1.78059057466166        1.14374635187339       -0.25158701467874
N           -3.10429301049511        1.07276569033054       -0.55150382321032
C           -3.50211049303423       -0.17186307701805       -0.33713252728545
N           -4.76590239849756       -0.57382082406534       -0.51689009216651
H           -0.03940666468939       -1.79121502332571        0.62955248012984
H            4.99302356482915       -1.54225285640825       -0.43990724736853
H            5.33575500240741        0.05853660917322       -1.04423621523497
H            1.04215668539224        4.46914254085020        0.91269319887097
H           -0.68483551915483        4.64651213302295        0.82552007548395
H           -1.94020259961474        3.18377125234798       -0.40371445510494
H           -5.02809787825972       -1.52524620592496       -0.33117741916147
H           -5.44692670112299        0.08675816207247       -0.84501777896900
