29
 energy: -51.161214536661 gnorm: 0.000963726094 xtb: 6.6.1 (8d0f1dd)
N           -4.05969352683472        2.38308133648895        0.19031408768513
C           -3.12466380913584        1.72119101082833        0.10095698718481
C           -1.94639151575314        0.92971520407377        0.01601075891050
C           -0.76531477786735        1.71131567451997       -0.04935631309948
N           -0.95283488083279        3.06683990893715       -0.12928869740609
C            0.58927324688127        1.33964308209005       -0.05977990722222
C            1.32176758071447        0.17529930307971       -0.02623997906640
C            2.74477351892459        0.24315474274186       -0.01083295728396
C            3.50357973178587        1.40938328567367       -0.01516441826002
N            4.14160200180033        2.36859304855943       -0.01204410550275
C            3.28353604266986       -1.06319860243118        0.02244310159100
N            4.59714988598202       -1.36803012578589        0.02010128450116
C            2.21265499520561       -1.96587621545636        0.01938226870721
C            0.99846590578959       -1.26885476024081       -0.00932100683613
N           -0.11633266289391       -1.96181368044125       -0.02957891835449
C           -1.38184251505246       -1.69023917746311       -0.03534457572690
C           -2.28858823338835       -2.77818458378401       -0.05638160998368
C           -3.58104207240406       -2.30120193074414       -0.02252054939781
C           -3.55164490149462       -0.90287140499019        0.02154009291747
C           -2.23070347473732       -0.44430365880722        0.00553062505637
H           -1.87008491380778        3.46415173661050       -0.02624040801059
H           -0.16259225626238        3.68123192782928       -0.05542236359070
H            1.23627903810232        2.21535142789359       -0.09086385996353
H            4.89007710697006       -2.31988960534289        0.14566040553850
H            5.27990850263383       -0.63591038125608        0.10902823022490
H            2.28931589819985       -3.03590858246770        0.03656492533602
H           -1.97389556458687       -3.80303646192771       -0.08904248836150
H           -4.47610505755946       -2.89675025440776       -0.02885370696838
H           -4.42472455484866       -0.27718220847996        0.05245751618122
