32
 energy: -59.123676132209 gnorm: 0.000911777327 xtb: 6.6.1 (8d0f1dd)
N           -3.30482067932800       -3.64523976664169       -0.12257256453755
C           -2.95066134686672       -2.55094338338402       -0.07878260441562
C           -2.60660260012894       -1.20368490025503       -0.01953274837587
C           -3.53062143779517       -0.14996845930432        0.17064712495912
N           -4.85668133581340       -0.29616908609921        0.32665440176284
C           -2.81756102241248        1.05880844581903        0.17167233719026
C           -1.45417120306026        0.82043789702639        0.00948477354418
C           -0.53899672913448        1.88321760938688       -0.12611008931246
C           -1.20707438359131        3.13207349897190       -0.22623554196970
N           -1.74145412298728        4.14696483119671       -0.30743701786833
C            0.86884151763045        2.01003670881025       -0.15480795409078
N            1.33207645600148        3.26152115349139       -0.45621797463600
C            1.89429203302945        1.06144317303941        0.13147760284980
C            3.14145114898630        1.67913576396821        0.41422509850026
N            4.13881867176019        2.18653809394427        0.67851751562362
C            1.98976685672514       -0.33339608233202        0.12903342184854
C            3.21486457602011       -0.98193952174193        0.30121282241404
C            3.07161839450875       -2.35293847580146        0.03731210878918
N            4.05764508399735       -3.26718081357061        0.06803892096163
C            1.72223124207499       -2.60646523410627       -0.27349960409158
C            0.99700714496316       -1.42196897299590       -0.18023310434726
N           -0.30525472741603       -1.48137917389815       -0.25489412492627
C           -1.29774805570930       -0.66141242779513       -0.09942571318329
H           -5.26729870029345       -1.21245717660373        0.28569921134480
H           -5.44744530959963        0.50822859893581        0.43568269944316
H           -3.27674017245487        2.02421300498550        0.27915698491930
H            0.68905468600025        4.03330270331726       -0.50683166390404
H            2.31007602658578        3.47100566897482       -0.35066854430109
H            4.14479526619063       -0.50813513484407        0.55586722607340
H            3.85708537807614       -4.23274401671162       -0.12006424125455
H            4.98225610500299       -3.00544197439482        0.35909561037361
H            1.28637717273780       -3.56098375498767       -0.49480357458299
