28
 energy: -55.465659230696 gnorm: 0.000797353358 xtb: 6.6.1 (8d0f1dd)
N           -1.27454747875120        3.58323899028114       -1.28116300743606
C           -0.95111651685063        2.54771004927280       -0.90842231276565
C           -0.60099353914551        1.23542179605175       -0.49513000545191
C           -1.69632030844150        0.39113412753810       -0.25517663948421
C           -3.01242359472734        0.79656383801554       -0.17624855153229
C           -3.72565200337441       -0.27994505064815        0.42251508614882
N           -5.02006768607220       -0.28314765030395        0.74812351522347
N           -2.95189691285163       -1.34907844003320        0.65578916008256
C           -1.73033313221883       -1.04673808254426        0.19990619720065
N           -0.86792498148196       -1.98741492158371        0.02924343821271
C            0.38559761579040       -2.20069276418012       -0.25422616844322
N            0.63759931485323       -3.37504386392409       -0.87671953583965
C            1.51472889318367       -1.41824267051389        0.14194430784424
C            2.70517796998070       -2.14262040115757        0.36354392638861
N            3.64582769048248       -2.78352716376039        0.52036620666106
C            1.63853788094504       -0.03506744157218        0.23333015209385
N            2.82680335433546        0.48950892329604        0.54432650245443
C            2.71025243413261        1.80477896368392        0.29460837824824
N            3.71362825992970        2.65872349951885        0.48332430706556
N            1.50795647821090        2.20143146271623       -0.16108565752919
C            0.75380121745573        1.09825310379187       -0.18498928662855
H           -3.41855984581566        1.75349673203775       -0.43831491928294
H           -5.40391498583615       -1.09937040180815        1.19123537324386
H           -5.60957764830320        0.49918110628719        0.52820645482681
H           -0.12848633233422       -4.01285820834554       -1.01104188304549
H            1.58217470920411       -3.71417534205108       -0.95049781124051
H            3.58210798949692        3.62670230727064        0.25243910268054
H            4.59155955840241        2.31380035066563        0.82655652850347
