24
 energy: -47.762170989939 gnorm: 0.000803131522 xtb: 6.6.1 (8d0f1dd)
N           -3.68936658208958       -1.84575657451787       -1.35416797449010
C           -2.76419934940186       -1.33937784557277       -0.89736890055634
C           -1.60937508042632       -0.75694845422259       -0.33453571477637
C           -1.57892240405179        0.61859228901435       -0.25827784283300
C           -2.68730180626208        1.45159891575292       -0.50942691813599
C           -2.50131128029283        2.57513674190296        0.27741418203967
N           -1.33376573782296        2.59553027339212        0.93987565200109
C           -0.65058800064150        1.51232945404667        0.57453233997983
N            0.62478737538108        1.44273538153378        0.75926286890689
C            1.57008782883838        0.62963136054877        0.40159680651000
N            2.81419540836618        1.04845981451763        0.19137761380392
C            3.48546352900695       -0.03949194267879       -0.22652222196345
N            4.77117961246788        0.01165800137888       -0.55227710202444
N            2.77658348810217       -1.19115470162032       -0.30862144458862
C            1.55788732602353       -0.86357028637822        0.08349723932031
N            0.59992195404540       -1.73418270601200        0.20490956874847
C           -0.69082682729559       -1.72610198777514        0.25834465087473
N           -1.26796645350997       -2.80567154811594        0.82432365887033
H           -3.53909247604755        1.21864963345372       -1.11712825025448
H           -3.18187914538909        3.40074064594669        0.39248988914217
H            5.26231186073133        0.88345931604362       -0.46183884251736
H            5.23668363881358       -0.82593786662876       -0.85333068510317
H           -0.66969947457091       -3.54803603281879        1.14667485971837
H           -2.25678746237473       -2.96935194199162        0.73591494602834
