32
 energy: -59.145496096401 gnorm: 0.000791107741 xtb: 6.6.1 (8d0f1dd)
N           -4.15774783994262       -2.59045117705199       -0.07759279837206
C           -3.19526447615383       -1.96524622139297       -0.04206260938399
C           -1.95903126836453       -1.25890869187702       -0.00590511805924
C           -0.80675550137561       -2.08935840867175        0.02888820527144
N           -1.06447617755995       -3.42790472434334        0.07877402312469
C            0.55757517215985       -1.77788962933580        0.02107511795230
C            1.36606541977661       -0.65514156239910        0.00332110124992
C            2.77562315223283       -0.83675648710895       -0.01550978126457
C            3.44445375052934       -2.05817382064266       -0.02833350163337
N            4.01718705014223       -3.05708357048710       -0.04127076348788
C            3.42611222771726        0.41812512808921       -0.01673537623622
N            4.75314043702604        0.62376431314318       -0.04085655917465
C            2.42528261878162        1.40905708803749        0.00497052506595
C            2.68057011706537        2.77759464781099        0.01436480139330
N            2.92501582933886        3.90278218958344        0.02327841112167
C            1.13897229001296        0.79356573911399        0.01417016148112
C            0.01065176640974        1.58059988570530        0.03250638236614
C           -1.36117386808909        1.33709676225584        0.02236495815905
C           -2.28143272908616        2.38018809015849        0.02407386749687
C           -3.56760542747441        1.79641549612257       -0.01083613025314
N           -4.75055751292107        2.42551730382531       -0.04186567523776
N           -3.49618043344432        0.45911228429433       -0.03106722372159
C           -2.19609637630979        0.11437550189708       -0.00820227720798
H           -2.00914478990721       -3.76902814941777        0.03691185710087
H           -0.30971359981041       -4.08919135298547        0.04533475135952
H            1.16216988486647       -2.68365258567010        0.02892629832269
H            5.38587186391594       -0.15662847114498       -0.03907622666877
H            5.11938331848042        1.55915099283336       -0.02276984743983
H            0.23884105962290        2.64391897359581        0.04768940984998
H           -2.06060398823958        3.42953416429220        0.04298383520179
H           -4.80865367171413        3.42273128355847        0.05197758081763
H           -5.58564244608473        1.86735784961248       -0.02021646939268
