33
 energy: -63.657693506425 gnorm: 0.000903614079 xtb: 6.6.1 (8d0f1dd)
N            4.28970427302051       -2.69265530902746       -0.20896534132610
C            3.31551697827935       -2.09327831549552       -0.10903933695306
C            2.06087530751456       -1.43163848456075        0.02004221586740
C            0.95951012268222       -2.29712735981060        0.24922282812396
N            1.28275666204656       -3.59584574375440        0.49743280822444
C           -0.41634569983598       -2.04644127210763        0.20758161428921
C           -1.27161639376637       -0.97138177732682        0.04904089844230
C           -2.66167602693182       -1.24454248556593       -0.06380322722723
C           -3.24661288065039       -2.50847692096940       -0.09742999415421
N           -3.74755872243857       -3.54440359976510       -0.12335684016637
C           -3.38276313345796       -0.03596614869155       -0.15060597670241
N           -4.70715175706882        0.09812082407545       -0.29608593421735
C           -2.44754707934707        1.02367759242516       -0.05543100419558
C           -2.88480417311187        2.34306813654809       -0.19136629803354
N           -3.40258053106339        3.35625606586993       -0.36268122310354
C           -1.13738174694808        0.49418161109922        0.06249950545108
C           -0.03119178258195        1.32773839693947        0.21506775086609
C           -0.33985879162165        2.67676643378009        0.54549573973651
N           -0.51103192815122        3.75121088782468        0.91031243626021
C            1.35953191586205        1.13930216827982        0.06664127236255
C            2.24023984983516        2.21070849573370       -0.00692417003516
C            3.52685009756575        1.67396236235976       -0.25330172666129
N            4.66577656731592        2.35074778356165       -0.42956215668849
N            3.49549046069372        0.33672165769024       -0.29823144479613
C            2.22616783440097       -0.05435409807379       -0.09489687116530
H            0.56094791086400       -4.29144708954703        0.56261207230226
H            2.24120539764998       -3.89830057556065        0.45858843414815
H           -0.98077016394834       -2.97432787431099        0.28673073137634
H           -5.11217149252559        1.01678512904984       -0.36038460194770
H           -5.29570510140531       -0.71276103077838       -0.37530582306994
H            2.00123832644324        3.25299571121569        0.06327673652896
H            5.51023848406621        1.83421894048082       -0.60248772508066
H            4.68737364271432        3.35211050991173       -0.36585210765604
