29
 energy: -51.174249339066 gnorm: 0.000616444013 xtb: 6.6.1 (8d0f1dd)
N           -4.47536728214502       -2.30797549841786       -0.00393343283750
C           -3.60717283784406       -1.55183886087821       -0.00395583400825
C           -2.58464781133135       -0.60507138231824       -0.00210091195139
C           -1.19236109553428       -0.87383734912184       -0.00580382194601
C           -0.74283706739860       -2.18785093494999       -0.01247290502770
C            0.50247276858245       -2.79998092087324       -0.01496122863169
C            1.81235613305665       -2.34599672355861       -0.00911436070794
C            2.41952823434579       -1.09591381825694       -0.00086590101053
C            3.80707913009652       -0.97883581446836        0.00839212531486
C            4.18186113206204        0.38000148770115        0.01224989584746
N            5.44898584410169        0.84752610680697       -0.01442641927294
C            3.01546920023500        1.15229257017009        0.00230243215609
C            1.89584569968442        0.31174884439393       -0.00253353951392
N            0.71329852083341        0.86162769473719       -0.00228447423512
C           -0.52201460528816        0.44278982580850       -0.00096167129771
C           -1.55301214785169        1.42502433585971        0.00609762853183
C           -1.37463618478852        2.80782360637272        0.01456297123703
N           -1.29463242705114        3.95540217898635        0.01922698505658
C           -2.81073399017306        0.79191157577443        0.00533278818347
N           -4.00993934999190        1.39942815852954        0.01064193262639
H           -1.56573149978572       -2.89865713550665       -0.01570570528711
H            0.43253105994470       -3.88260733499499       -0.02166469180513
H            2.54131172987901       -3.15219567439288       -0.01153924911239
H            4.49666526486322       -1.80466671138578        0.01264372406140
H            5.61229139977643        1.83006425696206        0.11606678976583
H            6.21576273471441        0.21551691257149        0.13302970553066
H            2.95851613863675        2.22352234329524        0.00139163441776
H           -4.85365938563336        0.85404786464760        0.01033566373078
H           -4.06342350499571        2.40259940000661        0.01625931128526
