26
 energy: -47.999235800234 gnorm: 0.000822308960 xtb: 6.6.1 (8d0f1dd)
N           -0.30949561704306        3.18324179235629       -0.72064081954369
C           -0.02424255209549        2.10045981161218       -0.47510477127251
C            0.38913033290037        0.75273711603447       -0.26213218503552
C            1.76782545368596        0.61734799282480       -0.15254560082540
C            2.62394404943568        1.72473085827193       -0.02822884156600
C            3.85416978420404        1.30348258772517        0.47226102593623
C            3.84993548913001       -0.07603927389643        0.61769057331363
C            2.61753517300261       -0.58604212378361        0.16353006721090
N            2.48533602604015       -1.85213948032349       -0.08122982094333
C            1.54944797321546       -2.67230152599379       -0.46417132646359
C            0.16407050392253       -2.64009461672523       -0.33744540531581
C           -0.74827347549296       -1.62953579433045       -0.07254235918692
N           -2.02713872607429       -2.02714819526484        0.10314188471798
C           -2.78913309092109       -0.94488462619969        0.19850749750116
N           -4.11039189106807       -0.99667403411599        0.39615219689305
C           -2.01191876667087        0.25387481380476        0.05937653781100
C           -2.61840604532217        1.50418117740264        0.15201412767024
N           -3.26422242630072        2.44876265034365        0.27222515592989
C           -0.67780129392073       -0.15730398393030       -0.10145468816595
H            2.35728042315170        2.74173243425802       -0.24763895527718
H            4.68049479869612        1.95252360798651        0.69933564822468
H            4.66208392861488       -0.69046217917701        0.95493747624390
H            1.95923167619440       -3.61869365070882       -0.81072887827832
H           -0.32394536469272       -3.60280656467914       -0.43306664087109
H           -4.64894764463733       -0.14979763464351        0.44469531872555
H           -4.55898329925371       -1.89133355194772        0.47737796036765
