27
 energy: -47.728536949051 gnorm: 0.000929430694 xtb: 6.6.1 (8d0f1dd)
N            3.92879966008648        2.59863223160559        0.00059294967138
C            3.12649891101804        1.77398909577013        0.00046521332144
C            2.18845000103382        0.74113122456102        0.00029799243626
C            0.77961211779214        0.88762176406048       -0.00030624277152
C            0.22024152740039        2.16430250336815       -0.00049595055356
C           -1.06731706503587        2.66877678053242       -0.00115978892502
C           -2.33729790889805        2.09683449465162       -0.00191077309830
C           -2.82701569039514        0.80342414000656       -0.00230113321753
C           -4.20921426425276        0.56040950319763       -0.00304597955079
C           -4.45628642784694       -0.81204491761887       -0.00331337900334
C           -3.24718727003060       -1.48700154818175       -0.00277240768426
C           -2.18777024635801       -0.55278171905404       -0.00214367994177
N           -0.96895116229189       -1.00354354250084       -0.00158718298439
C            0.22758519332104       -0.47768752107632       -0.00076086552336
C            1.33946908118776       -1.36899521159644       -0.00101197769849
C            1.28308288089280       -2.76345250373180       -0.00377458861875
N            1.31417227061387       -3.91263839838854        0.00211012900420
C            2.53874856501019       -0.63180926287374        0.00013491036705
N            3.78580499891178       -1.13125110194200        0.00080846959287
H            0.98297751105719        2.93916788463828       -0.00004707514822
H           -1.09360069106931        3.75292221328198       -0.00107102093040
H           -3.13278420181786        2.83756043333575       -0.00227815165507
H           -4.96209449138964        1.32876142311007       -0.00333670977856
H           -5.43028716907550       -1.26747715369317       -0.00384275094237
H           -3.09713840607669       -2.54947027836556       -0.00277362045868
H            4.57927229331163       -0.51483244699577        0.00029103907377
H            3.92820355680111       -2.12588802090080       -0.00040207238260
