41
 energy: -72.617473308236 gnorm: 0.000666112809 xtb: 6.6.1 (8d0f1dd)
N           -0.04258907745419       -4.67125033717879        1.50324734140350
C           -0.03228488742232       -3.63398765967019        0.99702883617985
C           -0.02054389366687       -2.33777071095851        0.44865900974975
C            1.27728329217582       -1.87032989625308        0.10895375544927
N            2.21355260513046       -2.85799217648927       -0.03440487406563
C            1.72628797190543       -0.55739535475366       -0.11812249084399
C            3.00053822814277       -0.27520908638911       -0.67742381162074
N            3.82457068174174       -1.12822763971751       -1.37824211181808
C            3.34219782056621        1.05483088290340       -0.38450864440271
C            4.47899476871055        1.72339607480320       -0.82432503525688
N            5.40873365397041        2.28327754711323       -1.21117098480863
C            2.30430772771771        1.61923770013995        0.39138070091967
N            2.35342063041515        2.91402462803058        0.85870896889736
C            1.26565115903344        0.67101014272942        0.51353191288904
C            0.01207374968856        1.03014514369072        1.05359982183272
N            0.02262098919113        2.03683149513452        1.99307298355141
C           -1.24916800604541        0.69492473271955        0.51604394422385
C           -2.26996437488139        1.66266010864505        0.39596356923623
N           -2.29380235882598        2.95795325600662        0.86387610799269
C           -3.31973166801870        1.11810560427526       -0.37826006247585
C           -4.44500048716258        1.80719367512946       -0.81607452398104
N           -5.36285915107006        2.38899583224158       -1.19916377827677
C           -3.00361592888051       -0.21791331391585       -0.67232761493960
N           -3.84478064575600       -1.05484806306452       -1.37214394861918
C           -1.73403885958663       -0.52433493941968       -0.11520315073434
C           -1.30974189237644       -1.84561828420030        0.11079525362906
N           -2.26478758646770       -2.81525543409518       -0.03181871407354
H            3.18457136712173       -2.60961660206564        0.06816450436579
H            1.95503651969615       -3.79213149870970        0.24242842419711
H            3.36028090328029       -1.83760078027443       -1.92636334304853
H            4.57486208525452       -0.65968344850340       -1.86706516145100
H            3.07297695004301        3.47188836834355        0.41948366872168
H            1.46811579498977        3.39125618054976        0.94658371124089
H            0.87618668039917        2.13512888749684        2.52016919439787
H           -0.82768716159193        2.15109513829798        2.52220093863148
H           -1.39951221766738        3.41836425221550        0.95034280129469
H           -3.00350063450524        3.52947928908368        0.42620197029850
H           -4.58702548855172       -0.57196156606082       -1.85931506778539
H           -3.39488036548594       -1.77246145332484       -1.92154770429264
H           -3.23079750848396       -2.54851023803860        0.07208792868833
H           -2.02375485527272       -3.75427553996693        0.24427491770416
