28
 energy: -51.448914067687 gnorm: 0.000776947268 xtb: 6.6.1 (8d0f1dd)
N           -3.75553083264454       -2.61338257579448       -0.60710126124784
C           -2.92650182384703       -1.85261863870304       -0.37109395568265
C           -1.88102220729662       -0.95219061526142       -0.06914604642149
C           -2.20165104780672        0.40027334535596       -0.18764202246209
C           -3.48535865416091        0.84865020288394       -0.54152159232049
C           -3.51703964550890        2.21181697199423       -0.27886581041705
N           -2.35816215213883        2.67320210487843        0.19087143025306
C           -1.49300998217640        1.63982731862483        0.23370404273606
C           -0.18183843227552        1.95779659728638        0.52741336422764
C            1.01826188897921        1.27113037962444        0.38116779646527
C            2.25276292670808        1.91238175514899        0.36794530461331
C            3.24995376758992        1.02181433158739       -0.08309545532350
N            4.54907586241028        1.30985851670754       -0.26314404661571
C            2.65094905643543       -0.23677597631431       -0.31344827394729
C            3.32804858681708       -1.37958746993998       -0.73264493399210
N            3.92550029408607       -2.29952412593871       -1.07922050766436
C            1.27621268012709       -0.15044169739162        0.02683240151409
N            0.55879435978031       -1.21970984265500        0.16012996078195
C           -0.67505918531616       -1.59382623967221        0.36072531588543
N           -0.79475626610058       -2.82514226885920        0.92255085600385
H           -4.29233518309781        0.24264810379181       -0.90458507651644
H           -4.34696529847726        2.88181710514973       -0.41780873439634
H           -0.06984179729578        3.01146682093671        0.76251790322181
H            2.41949109050958        2.94494129029665        0.61376908731005
H            5.17690852999497        0.60298336383335       -0.60518432134280
H            4.90445130789480        2.22356607406337       -0.04729873637732
H           -1.67942690609066       -3.30419802549428        0.90817567829591
H            0.04728888120169       -3.36446920092448        1.03503079832049
