27
 energy: -46.921887027062 gnorm: 0.000463965002 xtb: 6.6.1 (8d0f1dd)
N           -3.95160292759778       -1.91877324672113        0.57615300463399
C           -2.95711409853665       -1.38299383546464        0.35832996911863
C           -1.71492216778723       -0.76880090188202        0.08902059308087
C           -1.71814644722872        0.62773550048024        0.15811214626605
C           -2.87371522721171        1.37132669987203        0.44439292124676
C           -2.57480778519587        2.69751993350448        0.15636350157265
N           -1.32496171541408        2.86236899863961       -0.27123683652926
C           -0.72686156451976        1.65081692432930       -0.25762034783237
C            0.63001400923338        1.63879705755952       -0.50970739557497
C            1.62733732155820        0.69193271034093       -0.30904168919118
C            2.97279213878849        1.02371275947496       -0.27835049340170
C            3.71973693303616       -0.07138253254750        0.22922633774566
N            5.05149789506607       -0.05595263322824        0.45496014037262
C            2.84703370795643       -1.12778345009863        0.47884571810221
C            1.54983287277706       -0.74488392742102        0.10320494129328
N            0.60310201755590       -1.62787831809313       -0.00870059545490
C           -0.67988353150900       -1.69487464343822       -0.24646097630055
N           -1.07611333625186       -2.89767164999795       -0.75590657433525
H           -3.81384576863568        0.98132586064360        0.78322617115306
H           -3.23030751046159        3.54585296719096        0.24723576596377
H            0.99709641099970        2.62769748145009       -0.76623913376227
H            3.38744049318662        1.97795930700836       -0.54734874967277
H            5.51732728935467       -0.90141876030442        0.73115049586016
H            5.60815224309197        0.69753829638649        0.09300639975029
H            3.11417395358101       -2.10093813539814        0.84233085175758
H           -0.38712559135375       -3.62963678868782       -0.78900945424425
H           -2.04907426437886       -3.15297019090114       -0.74212739311640
