32
 energy: -63.927742050063 gnorm: 0.000784062992 xtb: 6.6.1 (8d0f1dd)
N            0.90666061414312       -4.12401917684577        0.80200506535989
C            0.76409090336785       -3.01426054339089        0.55809637876669
C            0.57788328476550       -1.62493185136433        0.30035771774052
C            1.77560316724818       -0.92856955518443        0.12468410462511
N            2.88904125498226       -1.65362476205025        0.13218243499909
C            3.89779305591388       -0.86462624784904       -0.30426491809158
N            5.13702107866860       -1.35176555964003       -0.40507233441719
C            3.44745249392153        0.43340056459626       -0.59353914804689
C            2.09005579960159        0.47479843531247       -0.27201715520381
C            1.36989331873144        1.67524450465158       -0.22955633088476
C            2.13141994021018        2.77869730895816       -0.69254218057667
N            2.72350316632616        3.67449437943779       -1.10199815210664
C            0.11010764777947        2.06417267162250        0.31027045408811
N            0.04290575783848        3.36260238887685        0.71081734932435
C           -1.08967156298484        1.32706595875329        0.41281701875064
C           -2.17954488923112        2.08327982365612        0.91812229874400
N           -3.01757660453065        2.69794524158593        1.40686922647511
C           -1.47108950601710        0.01866430932731        0.05954389141530
C           -2.81068634259268       -0.33937991453227       -0.15952383815757
C           -3.94129546650172        0.44411975233533       -0.38504392322693
N           -4.92264524731518        0.98827860881821       -0.63633542022117
C           -2.83809996794080       -1.76560383145044       -0.25521761297131
N           -3.90324527163816       -2.52336657918275       -0.51058873936902
N           -1.62328006668139       -2.28581865721111       -0.05614337924239
C           -0.75785808890107       -1.27571568291846        0.09256680010882
H            5.88197334404328       -0.80037403340003       -0.79057631627059
H            5.29225176088449       -2.31343348508454       -0.15693277565956
H            4.05515839869976        1.24800183025194       -0.93312597453475
H            0.83000920003554        3.97391399552131        0.57464427425284
H           -0.84400202602702        3.77343343865082        0.95128445137199
H           -3.78810814299221       -3.52116586306464       -0.55377313674428
H           -4.80582199010707       -2.10396835978683       -0.65365287149804
