26
 energy: -52.015791969765 gnorm: 0.000852234664 xtb: 6.6.1 (8d0f1dd)
N           -0.15996224553931       -3.10453981362579       -1.18377235804378
C           -0.05562097370130       -2.00612268029948       -0.86983925577640
C            0.14676871823415       -0.63572055512159       -0.56152508967280
C            1.50004291985640       -0.33164773883558       -0.29524661867635
C            2.47702895682590       -1.27045388705001       -0.03728610057666
C            3.56440324997286       -0.56766944037316        0.55770067263644
N            4.68787617087778       -1.10905443600927        1.02854556900612
N            3.35150136852958        0.75407561518106        0.62893805407833
C            2.17232416935755        0.98596411847457        0.05117087798421
N            1.85110490087047        2.16313154273475       -0.37144712967151
C            0.75306938639703        2.67779447445539       -0.84609874909376
N           -0.45663154965075        2.54882328842328       -0.39435830036936
C           -1.17046344762671        1.56320369775015        0.04229746461655
N           -2.34906722957513        1.77232525424622        0.63315021579293
C           -3.03520260967075        0.62874298876757        0.55722481213422
N           -4.27457255754299        0.51476801049437        1.02959294629026
C           -2.28509475709539       -0.42631190420850       -0.06602109837106
C           -2.81625572698884       -1.69992569660917       -0.24286614273179
N           -3.37178822813590       -2.70267328799581       -0.34213624570495
C           -1.01115205063238        0.10384304952243       -0.31377350253762
H            2.41900338916287       -2.33235716686160       -0.17314779033940
H            4.87630991544704       -2.08916086405860        0.91820685991891
H            5.37440421432782       -0.50483441139768        1.44540590353104
H            0.89167826834442        3.46627338464159       -1.58259089265001
H           -4.78751051711522       -0.34201211404087        0.91025131773397
H           -4.70448772803471        1.31290858550027        1.46383740018694
