24
 energy: -47.773286787487 gnorm: 0.000441997456 xtb: 6.6.1 (8d0f1dd)
N           -0.20869781149875        3.43538183165897        1.45107550727935
C           -0.02258245375988        2.39785722593234        1.00021187207308
C            0.15972705651961        1.08125518922511        0.49950108515209
C           -1.04464263050635        0.37840975326957        0.25434774216452
C           -2.28770791696047        0.95851355737019        0.22378154901671
C           -3.16847450115048        0.00347153807885       -0.38672392829255
N           -4.46029184310581        0.19671299699481       -0.64739056520274
N           -2.55609327203981       -1.13797427802596       -0.69231444972524
C           -1.28823415414071       -1.02930170705032       -0.26439983484329
N           -0.55613021247206       -2.07915244986528       -0.15875100101591
C            0.70875607077788       -2.28106930561580        0.18750073451074
N            0.93896800769066       -3.34539267829792        0.98212491574080
N            1.76180779520524       -1.69390002148630       -0.33451919030966
C            2.07087963922508       -0.45048713688903       -0.51529531529155
N            3.21503118301197       -0.06783231958438       -1.09122683469324
C            3.34606058741322        1.21567285682533       -0.75967410385879
N            2.37106245934643        1.76565535761202       -0.04271234233321
C            1.45246875423281        0.79228025438381        0.09468200966337
H           -2.55504638536516        1.95474537217603        0.51802353355184
H           -4.97361507779262       -0.53385726570003       -1.10983831590809
H           -4.92172161682512        1.04718328443538       -0.37809886038966
H            1.88475878564858       -3.67309464471967        1.07934562434556
H            0.17472178371967       -3.96484105806612        1.18970682137885
H            4.20722137702581        1.78544360953931       -1.05881297791279
