33
 energy: -63.656777360426 gnorm: 0.000494522506 xtb: 6.6.1 (8d0f1dd)
N           -3.74147147083142       -3.52752096450578       -1.05359723065014
C           -3.37634475072573       -2.48797930575908       -0.72152140879920
C           -3.00204470377341       -1.20897913684859       -0.31704853197592
C           -3.92479852116195       -0.23227263306600        0.17505507847576
N           -5.24965550628967       -0.41765126798428        0.27666798601969
C           -3.19861611493394        0.90381706736953        0.51273936592607
C           -1.83964164566390        0.71578239620388        0.20015221627908
C           -0.94937773926041        1.78815784917994        0.22533328302146
C           -1.52382666541033        2.98101799130446        0.73712721603571
N           -1.95286040025858        3.94778256995692        1.18595505205637
C            0.37381477562245        2.01044251174512       -0.28091694815036
N            0.60847570482892        3.28985299395259       -0.68469180699961
C            1.46747261642460        1.13224676014913       -0.34011991556528
C            2.67434675351051        1.74490016670812       -0.76639274806568
N            3.61661406582267        2.25480344725914       -1.18070761260035
C            1.64369853679041       -0.23422075425326       -0.02733970090653
C            2.90021035435186       -0.79724733436208        0.22547275543788
C            4.12612960836314       -0.20814340424346        0.52790359332434
N            5.16911810766599        0.16608846605498        0.83615843974865
C            2.70841418667039       -2.21874168295170        0.23130444155109
N            3.64968933602983       -3.13389880593626        0.47603844719120
N            1.44722452890822       -2.53822310366459       -0.04668166849487
C            0.74499839026198       -1.39261304406410       -0.16276955816766
C           -0.60916207089771       -1.52734595447008       -0.41014741683987
C           -1.69804442396602       -0.68571656412397       -0.25768797086644
H           -5.66238240659881       -1.28312237116207       -0.02505211857576
H           -5.83736417517836        0.30396327729611        0.65336656589326
H           -3.62644338721560        1.81241369168712        0.89160640221905
H           -0.09357591811189        3.99756582504439       -0.55104986163986
H            1.54939598307874        3.58815859012539       -0.88340797308878
H            4.59251016249096       -2.85145644029509        0.67940059896430
H            3.40135941384938       -4.10698181944593        0.45352257938658
H           -0.87478007377220       -2.55886293481655       -0.62144102944458
