24
 energy: -47.765789167012 gnorm: 0.000850241876 xtb: 6.6.1 (8d0f1dd)
N           -0.51127388601334        3.41012591514275        1.32312559506425
C           -0.27105933452093        2.36542130554130        0.91981011295806
C            0.03063528798623        1.04636006101507        0.48377310128168
C           -1.09200112857767        0.23895977425753        0.24867233563965
N           -2.28687947300186        0.80160135250984        0.21696494862972
C           -3.15096194760798       -0.09925769788633       -0.33261211066902
N           -4.42800795206413        0.24813100320369       -0.50227611978800
C           -2.52877701965353       -1.31329448240822       -0.64547738821900
C           -1.20994920314019       -1.20224802175497       -0.21188095408170
N           -0.40708303843873       -2.21207013971030       -0.03270556537347
C            0.86459603716696       -2.30512467180253        0.28944692826882
N            1.21808169990836       -3.34296404238162        1.07702853814522
N            1.86409157189749       -1.63248288577976       -0.26109924339226
C            2.06683334041226       -0.37793495328680       -0.45931103318038
N            3.19320117909728        0.07365416342424       -1.04682287227612
C            3.22787024352969        1.36119986430476       -0.75795579761052
N            2.18961517720757        1.86730891091251       -0.07561379984927
C            1.35543438714880        0.84170773275709        0.09733161877063
H           -4.71370604332389        1.16685155687366       -0.20980126090638
H           -5.07384297619318       -0.35716107587544       -0.97594250110494
H           -2.99259916761353       -2.19009965725038       -1.04784363230661
H            0.52054112013114       -4.02488013659796        1.31932481610651
H            2.19132174392758       -3.58992900888868        1.13094408123800
H            4.04863380483496        1.98616971808022       -1.06000258154490
