26
 energy: -52.000147736821 gnorm: 0.000952193181 xtb: 6.6.1 (8d0f1dd)
N           -3.52339199468302        2.69659818340158        0.42590274651166
C           -2.54557816894989        2.10809467789967        0.28849323116842
C           -1.33065095194754        1.41843007871764        0.09211510255077
C           -1.39653288189376        0.02901884862309        0.19224550906269
C           -2.58209804719329       -0.65327240196717        0.47184444524063
C           -2.35173664509609       -2.00523643594608        0.18736950593646
N           -3.19627091115764       -3.03378165470857        0.28161962433288
N           -1.07857334180429       -2.21448137585695       -0.23744703839936
C           -0.43869163329426       -1.05582254240356       -0.20812954600712
C            0.94710223073201       -1.10538040015156       -0.43594085933607
C            1.41524895658764       -2.38407413557763       -0.85131906503764
N            1.79403257963615       -3.39378865092730       -1.23664140724212
C            1.94925805042094       -0.20425737411053       -0.09412782293762
N            3.21888814341590       -0.58853153661499        0.06536645876933
C            3.81014457717139        0.43085592154103        0.69859020102796
N            3.07209012968427        1.50640794168546        0.93132268845357
C            1.87586429639470        1.21958985176360        0.38823951796626
N            1.00257093930166        2.13698431568240        0.15179439938400
C           -0.22606977407221        2.27122763186738       -0.24987702170561
N           -0.50159138733322        3.41557634167193       -0.91430783626819
H           -3.50643462686818       -0.21848499197232        0.79597729543859
H           -4.12715148791450       -2.91222038685644        0.63739230737520
H           -2.86147537522191       -3.94952603557080        0.03604047837401
H            4.84035239112707        0.37682117614131        0.99930994339039
H           -1.45392990182555        3.69994092038433       -1.07138597015843
H            0.23428186418342        4.09635784708449       -1.00596774969086
