22
 energy: -44.320320209582 gnorm: 0.000466456506 xtb: 6.6.1 (8d0f1dd)
N            0.01306068804117       -3.40623186271885        1.06230502458067
C           -0.08124321589072       -2.29593885179592        0.79455095513440
C           -0.23040043076591       -0.90951964221881        0.52024121259384
C           -1.53295372574267       -0.50679949702365        0.20065137197692
C           -2.59550687551116       -1.35718902600191       -0.06725987003426
C           -3.54151442002001       -0.59867395632988       -0.78508732395475
N           -3.19511647246738        0.66337690278335       -0.96574375647090
C           -2.03387468132360        0.84344751639733       -0.30188057225761
N           -1.63290663729947        2.01311745961467        0.02743234115855
C           -0.58007226983995        2.49569394504566        0.64051324549900
N            0.66491710638052        2.26746651367852        0.37921213341134
C            1.31651341399369        1.20224582598091        0.01591381279001
N            2.56418012155050        1.22981515504847       -0.43223297063240
C            3.01190064358695       -0.03263131040918       -0.29092980669493
N            4.24873434500089       -0.38880365522362       -0.61015382348553
N            2.11909901746053       -0.92620591979365        0.19497450429711
C            0.98823184240982       -0.24340485063908        0.33703680207404
H           -2.66195333953587       -2.40233893372051        0.16276248589047
H           -4.47366313119364       -0.95904159932864       -1.18418318316735
H           -0.77850497620982        3.33308928523866        1.30499178500545
H            4.87531144485572        0.29871100770742       -0.98960541928736
H            4.54445708262196       -1.33499429209418       -0.44575407042823
