31
 energy: -55.401639378612 gnorm: 0.000773675365 xtb: 6.6.1 (8d0f1dd)
N            3.61378657988915        2.45444021018380       -1.28461532610363
C            2.89752667619964        1.70150682927987       -0.79519109149297
C            1.95800125782281        0.79784931682466       -0.22893429552655
C            2.38512135444666       -0.52533202957178       -0.23098930134787
C            3.70085332006860       -0.86219870992220       -0.62551090429015
C            3.96770607081988       -2.17130231854085       -0.26234425229257
C            2.82897755743161       -2.71771027938118        0.32406242913458
C            1.79452081116389       -1.76606071935688        0.31754621328713
C            0.49446718474729       -2.14952012918906        0.57736596281678
C           -0.74573055095335       -1.55883142365724        0.36564698439804
C           -1.90351455274571       -2.35344769311373        0.31796176790154
C           -3.00422928494815       -1.56414799051749       -0.01618008086156
N           -4.27793611442824       -1.96380579501976       -0.20091369377394
C           -2.55531233001794       -0.21583517177663       -0.09879576667054
C           -3.40859798521971        0.81471484178494       -0.49637564493498
N           -4.17942086008997        1.57013472514619       -0.89447434807974
C           -1.16810562931528       -0.17305856428438        0.15205154529664
C           -0.50939228380246        1.04938958905488        0.39892892886519
C           -1.40766895123307        2.07503017783828        0.79948735836738
N           -2.08327990130019        2.90714835077631        1.21188069021114
C            0.82667493838454        1.48132963701151        0.31861732658052
N            1.07926332725733        2.76170029441830        0.72161855317209
H            4.39881521969094       -0.18407272893183       -1.07947533401491
H            4.90167708198646       -2.68172542528097       -0.41153493397946
H            2.72600759049081       -3.72681726964803        0.67817692540383
H            0.41443506677926       -3.19342078100288        0.86844150824051
H           -1.92390497927620       -3.41758279295761        0.46304316799719
H           -4.95899130890420       -1.30031767769290       -0.52821247990010
H           -4.50296214145326       -2.94179316132008       -0.22280397273401
H            1.97830617028656        3.17275688998656        0.53529743086501
H            0.31183605272016        3.38468636776553        0.91285140856645
