26
 energy: -47.999321612790 gnorm: 0.000933055197 xtb: 6.6.1 (8d0f1dd)
N           -0.28971541201854       -3.20070049183648       -0.75730463180643
C            0.00691735011095       -2.12034298534174       -0.51539492107488
C            0.39912693037982       -0.76708183826992       -0.30414638490479
C            1.76515883965833       -0.61371796737773       -0.04150288224430
C            2.58421290070522       -1.72832791405833        0.18167166488070
C            3.84988157381551       -1.30808787866288        0.59580053687520
C            3.88343647159885        0.07324967667030        0.60947591311524
C            2.63464439461668        0.58125955214395        0.18460352066759
C            2.50415901148354        1.90263825923597       -0.16764564815558
C            1.42019205324943        2.62688489705563       -0.70088534269211
N            0.15293879419895        2.49291987055107       -0.52113157624291
C           -0.70217662104414        1.60630454870382       -0.10754079576027
N           -1.92208691134991        2.02381898181186        0.27025143427498
C           -2.71797031634003        0.95815073158401        0.30831148981212
N           -4.00307804080260        1.03224210655022        0.66309583923515
C           -2.02564635080779       -0.24506757826820       -0.06251806357548
C           -2.69341535515101       -1.46256813249058       -0.14936257902739
N           -3.37167337529931       -2.39195408065588       -0.17821748536632
C           -0.68066602211556        0.12576297497361       -0.23574439325376
H            2.27094882482721       -2.75149508659693        0.09138877296910
H            4.66102312600502       -1.96105255948575        0.86178859947799
H            4.72842273931539        0.68572893664692        0.86311326814547
H            3.41577072951300        2.48373947037620       -0.07507306219773
H            1.67950235158477        3.52832322893632       -1.25372189605229
H           -4.39295696791961        1.93061842796188        0.88732829329492
H           -4.59032359061536        0.21770766544350        0.61473977000533
