28
 energy: -51.450151432150 gnorm: 0.000959481957 xtb: 6.6.1 (8d0f1dd)
N           -0.96622836600646        3.11385775385273       -1.24287841879180
C           -0.50333331843320        2.16282239168608       -0.79927679439108
C            0.10840976881849        0.96057956262133       -0.35158149639259
C            1.47195248804453        1.10300454653921       -0.02573044916485
C            2.06492343265349        2.35527858980140        0.08348676739263
C            3.33981330729932        2.22938529704036        0.67355597330328
C            3.59203199320863        0.90822946299070        0.92444320176930
C            2.49724224389568        0.12484654949541        0.43837901157658
C            2.64288810889151       -1.20809689388817        0.22811904507076
C            1.76504456348133       -2.13896867580782       -0.43298849133719
N            2.36589875670990       -3.09441989150742       -1.18040541536506
N            0.49035111639091       -2.26365216761903       -0.28150434961603
C           -0.53520700982701       -1.54089993437691        0.08085099755609
N           -1.65125539177019       -2.15669171230623        0.47633165512551
C           -2.63485878225246       -1.24573644729481        0.45087544882801
N           -3.88718020137259       -1.54784366603839        0.80777017908071
C           -2.17963538260614        0.03043220653198        0.00694462314379
C           -3.03645152981524        1.11990100478408       -0.10092195285006
N           -3.84933949851401        1.93437025025798       -0.14181368479927
C           -0.78227604009074       -0.09554617908033       -0.15320274531710
H            1.59917143599317        3.28567729626706       -0.18235093313948
H            3.99372406321408        3.05347272629093        0.89468441074659
H            4.48786998150604        0.49001575074140        1.34354906939710
H            3.58988670176402       -1.63800283533869        0.53675407969638
H            3.36176953845389       -3.11872652907112       -1.29719977987590
H            1.79324947562125       -3.80186835761781       -1.60663150727064
H           -4.61293983610264       -0.85621667591818        0.74030184250082
H           -4.09349534495529       -2.47948105223599        1.12013229162382
