28
 energy: -51.445080888421 gnorm: 0.000803586981 xtb: 6.6.1 (8d0f1dd)
N           -1.96857884546239        3.43888126295422        1.10019014421050
C           -1.57540345760092        2.41804391468987        0.75486499158628
C           -1.07074043597518        1.14201436156922        0.37747125669836
C           -2.04947211009213        0.19085843237304        0.14358325618379
C           -3.41536151598643        0.50651693503198        0.02605706655194
C           -4.07293267131756       -0.55722945529791       -0.58014506106856
C           -3.18221449199968       -1.60661363273217       -0.79461287477223
C           -1.92655869187646       -1.24186623838834       -0.29306651434793
N           -0.99806837840790       -2.12697200203178       -0.07160647613296
C            0.24618369041703       -2.20081441078367        0.29742807238955
N            0.59362466126637       -3.36795740035153        0.90201825139847
C            1.31170775182230       -1.28700015583664        0.00064953541150
C            2.57884583130684       -1.89650642119053       -0.15582278659914
N            3.57652759119195       -2.45697559330386       -0.25604446835710
C            1.32170400378026        0.09228451573159       -0.14680556640017
N            2.51179012629203        0.65518614228567       -0.43797256162029
C            2.37656959477747        1.97490177249017       -0.30662869191255
N            3.39566935885925        2.81354778250152       -0.54154417573807
C            1.05544075470138        2.32971876775556        0.07476835179582
C            0.32732814091705        1.15110593307764        0.14840238824699
H           -3.85719263283489        1.44611474989119        0.30022903136412
H           -5.11739925558238       -0.57035969730052       -0.83624867998339
H           -3.41373876999299       -2.56740567743111       -1.21106668536824
H            1.56452882434251       -3.61731845386634        0.98897283493329
H           -0.09950783068564       -4.09646630034333        0.93738544555781
H            4.29408219474923        2.42021906131413       -0.76023891965870
H            3.31387800751954        3.79119885491929       -0.33146001175961
H            0.69285620577096        3.32740614837106        0.22676872729148
