31
 energy: -54.621731448894 gnorm: 0.000627682709 xtb: 6.6.1 (8d0f1dd)
N            1.64993555133286        4.09510756683267        0.69730420621521
C            1.66264940563500        2.96130747429519        0.49187518529448
C            1.70886569762746        1.59469657533231        0.24066242597655
C            0.60090186721440        0.69561795733467        0.27267991614003
C           -0.68913879256281        1.16075532629938        0.39008428984662
C           -1.94870073658765        0.59555241215618        0.18071481915642
C           -3.07574782455053        1.40057033566250        0.12826393159344
C           -4.20725933530175        0.62546545429132       -0.23264010886571
N           -5.47176934785914        1.10380204972490       -0.34331978638503
C           -3.79472892734833       -0.68945557824771       -0.38757333306553
C           -2.41223483963125       -0.78809008358439       -0.11091542938361
C           -1.80520561161642       -2.01245697778027       -0.01319703724056
C           -0.48406635813147       -2.42929194045314        0.31110091486816
N           -0.37262007681993       -3.70931340618500        0.77912887994304
N            0.67212845592779       -1.85009710036253        0.14759663169481
C            1.15260628776296       -0.64338899078485        0.00194620440998
C            2.52399668705334       -0.47016768673814       -0.30316728415991
C            3.42247957121730       -1.47364359712245       -0.65578598395426
N            4.19756968778700       -2.27128544846993       -0.95275597875651
C            2.86811230310747        0.89452572994338       -0.14712045155136
N            4.09042545836118        1.42300004821586       -0.33586491148671
H           -0.74062859615666        2.23366585074767        0.56245014470161
H           -3.08908322065697        2.46118610500204        0.30216472930200
H           -6.16932200948348        0.52820727647315       -0.78139363034625
H           -5.60788299811774        2.09904952712434       -0.38007564971184
H           -4.42686367187744       -1.52010558376478       -0.64141263187185
H           -2.48067259261621       -2.84799202597565       -0.17255053955142
H           -1.14326177179930       -4.34926053645634        0.70647130889739
H            0.55776443417154       -4.08751138277869        0.84115640735064
H            4.85603145832331        0.83320082271523       -0.61056742115998
H            4.24934915669398        2.40024379115746       -0.16640282310340
