30
 energy: -54.896344364623 gnorm: 0.000960011628 xtb: 6.6.1 (8d0f1dd)
N           -4.90227177284683       -1.39971779694565        0.70479912042484
C           -3.96018311384143       -0.76685251368694        0.50594185268958
C           -2.83770538140896        0.01123808255142        0.26291254066491
C           -1.50671914380774       -0.43149474023787        0.05848653606950
C           -1.20425408145762       -1.77012149713875       -0.07607602225295
C           -0.00214327029657       -2.46349801806596       -0.31221803620219
N           -0.13250928274240       -3.73709462058275       -0.79211138556425
N            1.24540895899497       -2.15584268051142       -0.03476108675670
C            1.98376398869397       -1.10108509182856        0.12811315331642
C            3.32847854849906       -1.24073869685299        0.50002308656499
C            3.97558589069141       -0.01640594605870        0.34383496321657
N            5.27660602844329        0.24159598693461        0.56923334019947
C            3.02770595256376        0.94644320227970       -0.09302573452761
C            1.77781389411426        0.36143246761488       -0.17461374136928
C            0.60298111165816        1.11118316110319       -0.33731479232625
C            0.82038538232561        2.49557733448466       -0.58615818206435
N            1.04270614264374        3.59631947535947       -0.82056751085613
C           -0.75096041140192        0.81862598939709       -0.15690328180311
N           -1.58631939459558        1.87296854728437       -0.13352909706560
C           -2.81832589810363        1.42320198494099        0.12763399712521
N           -3.86285584440610        2.25531871980724        0.23504407000596
H           -2.07492755008682       -2.41759980937984       -0.02001584994051
H            0.68942465674332       -4.31516924042815       -0.78884749835893
H           -1.03244155820327       -4.18199916920061       -0.81206606255077
H            3.78171983670002       -2.16776230034545        0.79153747804742
H            5.89542277443914       -0.48695063877454        0.87498883352111
H            5.65464649139861        1.14881317573081        0.36431666095852
H            3.25057631853357        1.98062176768388       -0.27868005664385
H           -4.78109572865172        1.90171681621059        0.43374031413149
H           -3.71081341619346        3.23880808015138        0.10318902714209
