32
 energy: -59.131947375144 gnorm: 0.000973357185 xtb: 6.6.1 (8d0f1dd)
N            1.78763548832930       -3.57352731644365       -1.24372135213474
C            1.43396175710469       -2.55428244023984       -0.85119284442034
C            1.01446193512880       -1.26885969893921       -0.41419780800203
C            2.10263221441737       -0.40266918011555       -0.17793695244436
C            3.42015752494078       -0.83012765942513       -0.20833722621011
C            4.21200625364098        0.25746524262785        0.24617954037691
N            5.54340915418332        0.25146384684024        0.41939837376373
N            3.47153963566178        1.32893944146813        0.52133725980344
C            2.18023089282886        1.01149037545512        0.25244689243353
C            1.29441949988370        2.05586560760143        0.31062020275280
C           -0.05729728087791        2.27416615643190       -0.01988853149694
N           -0.37395545348417        3.59315700281421       -0.15101431814941
C           -1.12532815820390        1.36269939949101       -0.15462874505089
C           -2.34595962744213        1.98341011792116       -0.52607514513384
N           -3.27093922043142        2.52840554062430       -0.93771939510909
C           -1.26586096803157       -0.02965288171376        0.03735558784434
C           -2.53171260645844       -0.58071598408648        0.27842361111818
C           -3.71295552875586        0.04849853976312        0.67147462302011
N           -4.72120999473889        0.43864503299029        1.06607746872685
C           -2.45211149659860       -2.01043985617968        0.19893922151156
N           -3.48777212183592       -2.83936567635298        0.40967152500228
C           -1.14451052557937       -2.34154211265055       -0.12169804085046
C           -0.35595488739785       -1.17604538028456       -0.17514750449863
H            3.78472169229840       -1.80207358712690       -0.47752304479512
H            6.09472821231053       -0.52476022920337        0.10164207517869
H            5.99509379467318        1.10266809272124        0.70166281423106
H            1.81250558007623        2.96843442096920        0.59129026911850
H           -1.31595508241073        3.88220252035056       -0.35122404814329
H            0.34394036780807        4.29036480683343       -0.07487189857152
H           -3.36085004561893       -3.83417822304455        0.36664842548250
H           -4.38140726685558       -2.46497341555530        0.67831528328821
H           -0.77266924200043       -3.34053887199507       -0.24733476487303
