31
 energy: -59.428143423592 gnorm: 0.000518004443 xtb: 6.6.1 (8d0f1dd)
N           -4.09042358833093       -2.64712213913432       -0.02034477319357
C           -3.55656229396778       -1.62756580286908       -0.01141918491352
C           -2.97916165173107       -0.36321050100276       -0.00455391354048
C           -1.61587815684528       -0.00943404895569        0.00440478054375
C           -0.61771100454174       -0.96956668526808        0.01228984016946
C            0.76384109570622       -0.91829936067066        0.01153796161355
C            1.53855156996836       -2.10096886963161        0.01305989375006
C            1.10657663625427       -3.42221297590708        0.02657504812163
N            0.80175788575089       -4.53182944623568        0.03624125083121
C            2.90163431295155       -1.69529227193961       -0.00379977041877
N            3.97521040740255       -2.48962247255858       -0.00958485588587
N            3.00693545933987       -0.36258162118197       -0.01373441525393
C            1.76978615938697        0.16258239410251       -0.00220153859259
C            1.74171449446202        1.56064792078571       -0.00233585744262
C            3.07181853256012        2.06907396248410       -0.02633831021690
N            4.11570369749547        2.54730540855536       -0.05061946912887
C            0.73352721831679        2.55723343773536        0.02034835172670
N            1.18813463869832        3.83939465304400        0.04610347355813
C           -0.66500741275393        2.45510380219878        0.02196636406978
C           -1.62545734945002        1.46650720212842        0.00899004406728
N           -2.90220952341430        1.91653468951320        0.00354998620584
C           -3.71403902049390        0.86203659558021       -0.00623805905387
N           -5.04650793272722        0.97768819935397       -0.01779430130757
H           -1.00530533647741       -1.98657847756362        0.01580980252190
H            4.88710248375907       -2.06814709970826       -0.02262480371678
H            3.87350760290715       -3.48890210660668        0.00013302401074
H            2.17410905820945        4.03594374724501        0.02208476579169
H            0.53845304467752        4.60453271238711        0.03180350922023
H           -1.15258177505604        3.42626636817637        0.03210830815974
H           -5.62874424291545        0.15924670149480       -0.01854857480150
H           -5.45758942904154        1.89373391654879       -0.01244004069485
