32
 energy: -59.144422601289 gnorm: 0.000985411661 xtb: 6.6.1 (8d0f1dd)
N            4.10137795905895       -2.81610741255830        0.05468369762333
C            3.15188471248567       -2.16798936408616        0.03748216467288
C            1.96655034550156       -1.38841033123655        0.01715924402299
C            0.78934546023715       -2.16331960101393        0.02359086218955
N            0.97352448282456       -3.51707026810548        0.07125676317873
C           -0.57540686911062       -1.80454688660306       -0.00908474771007
C           -1.34642081535539       -0.66866401703317       -0.01243460429755
C           -2.77265911399385       -0.81083921654320       -0.03272665942700
C           -3.46851074212927       -2.01632826338998       -0.06662754875725
N           -4.05713868340898       -3.00560633062124       -0.09534595856443
C           -3.37501234898995        0.45373001693758       -0.00644308177466
N           -4.68942296121915        0.72553447935061       -0.01157579510275
C           -2.32983308119251        1.42001378828595        0.02550210163515
C           -2.56422976641765        2.79366374234961        0.05819825345440
N           -2.82051048359121        3.91515661982813        0.08477223320354
C           -1.07747666113150        0.77175045193809        0.01707608236347
C            0.09159951530072        1.51874092768677        0.02285523854994
C            1.44088183640639        1.23368428659954        0.00012238381261
N            2.25124126878280        2.30788350121511       -0.01447653614278
C            3.51445478942186        1.86658131136096       -0.03989933045345
N            4.55000790111996        2.71698395547440       -0.07444882640831
C            3.57141567339115        0.45519287111427       -0.03621319924975
C            2.26227745915344       -0.00601252562672       -0.01023676107277
H            1.89688334665750       -3.91413909200887        0.05151908979240
H            0.18586086395737       -4.13675395791204        0.02139306510709
H           -1.20252536599637       -2.69477969556457       -0.02570988184768
H           -5.00724728608088        1.67842327034881        0.01875617324539
H           -5.36099707749103       -0.02158373895208       -0.02938962559040
H           -0.07776457072417        2.59181122200119        0.03578723366496
H            4.36473002802481        3.70339020165592       -0.04099869804113
H            5.49419152591678        2.37924852798905       -0.04674645039399
H            4.46922254819050       -0.13051188927981       -0.05167240258304
