26
 energy: -47.211772165320 gnorm: 0.000493396416 xtb: 6.6.1 (8d0f1dd)
N            3.50636339725239       -2.62318767667488       -0.66696081589890
C            2.91841613177811       -1.65954849758859       -0.43975648675571
C            2.25763576914149       -0.47056852011880       -0.15919655178251
C            0.87719475716335       -0.21163825895096       -0.15451170094283
C           -0.05366651273133       -1.22815657978483       -0.37235711296391
C           -1.41223625243218       -1.30690757758448       -0.17208076332708
C           -2.12266994316317       -2.51665935644522       -0.09085758154938
C           -3.34879761258997       -2.21507029711141        0.48628927333572
N           -3.51993355477637       -0.90980097396571        0.72460756628531
C           -2.41835286565924       -0.28577317903574        0.28856247119235
N           -2.43676732592825        1.00349630456579        0.16409334803318
C           -1.62941622618042        1.98887216291465       -0.11170561066830
N           -2.25151383174124        3.09170317695224       -0.60298396682512
C           -0.24373063005350        2.12617659204076        0.17211657395050
C            0.78409502072591        1.22063964902282        0.20155431156390
N            2.02636960568939        1.71835006550271        0.44752872832275
C            2.90286070198576        0.75045655310251        0.23460180417922
N            4.22468540535368        0.92090838660062        0.36813980651250
H            0.41214985147260       -2.18251032862189       -0.61087077929544
H           -1.76207855850322       -3.48745082631714       -0.37015500604394
H           -4.13252094789780       -2.90701523098560        0.74167851923480
H           -1.76576671529469        3.96656685384516       -0.68026665988181
H           -3.25454799367392        3.07371632012018       -0.67130519300547
H            0.08715102671778        3.14252097455194        0.35206151961956
H            4.85669920851963        0.15859709051910        0.20234000619389
H            4.57235158902340        1.81165204474669        0.67336978641926
