32
 energy: -63.940344800682 gnorm: 0.000368086480 xtb: 6.6.1 (8d0f1dd)
N           -3.84901762493314       -3.59730243301948        0.79033953787095
C           -3.42600864890339       -2.55750914199435        0.53832792781666
C           -2.97865547882295       -1.27849881807146        0.22629521932068
C           -1.66887758018353       -0.78063164805956        0.22099675596586
C           -0.56619529843426       -1.61174682093458        0.38551429581286
C            0.78477712533216       -1.43502899262314        0.18885579134531
N            1.52360414556113       -2.56457028790834        0.11109065876896
C            2.77735784445492       -2.21760709513041       -0.14489199121997
N            3.75298998360376       -3.10431018208213       -0.34686986365321
C            2.92939852053675       -0.78615429122793       -0.16956047013454
C            4.14950764482039       -0.18329595072060       -0.47156495407641
N            5.19212532469098        0.19063380086132       -0.78064399937664
C            1.65896119602754       -0.24943223587579        0.04964454297376
C            1.45853016206235        1.12784923803866        0.30714155239659
C            2.65807307012687        1.77147549712905        0.71035499976591
N            3.58868131243167        2.31161465310165        1.11251293223047
C            0.35836027215209        1.99834175328241        0.22403142107782
N            0.59350951321939        3.29843271151396        0.53441233940560
C           -0.98378392229225        1.73486721740632       -0.20304376314025
C           -1.68539868650535        2.89536056751750       -0.63742887686498
N           -2.19297754825220        3.85647950720725       -1.00560784400289
C           -1.82452552488331        0.63404272250573       -0.17204034456410
N           -3.12180322960621        0.89214105075866       -0.46352943754956
C           -3.82583690345006       -0.20389596603072       -0.21970260150690
N           -5.14779341636827       -0.26394384656289       -0.38005731714355
H           -0.81784926325062       -2.65220978684685        0.56650982708740
H            3.53634238358431       -4.08495270885795       -0.31354897117951
H            4.68850973429397       -2.79438399864555       -0.54546546708879
H            1.52874796929944        3.61232511053833        0.73493160733761
H           -0.13169058187501        3.98532238051652        0.41396569058030
H           -5.63243035052141        0.55193262422115       -0.71155334196757
H           -5.65391859771871       -1.10462504710537       -0.16305581938911
