26
 energy: -52.009816058384 gnorm: 0.000681533625 xtb: 6.6.1 (8d0f1dd)
N           -2.10267207610941       -3.24931428612433       -1.25455939210489
C           -1.51969163528108       -2.33620130410686       -0.87928993017317
C           -0.77554256483139       -1.19729145963889       -0.47067288578105
C            0.57410714589503       -1.44797942483470       -0.15489025163447
C            1.10818407555713       -2.72778636935930       -0.08569627141822
C            2.37553434214271       -2.61244889163849        0.51940214787274
N            2.69405881773150       -1.37045584475686        0.81236874313038
C            1.67501601138049       -0.58087756612796        0.36805677096002
C            1.92886504927193        0.76329583674675        0.28296469212567
C            3.18874965765593        1.20449686294945        0.75138975925110
N            4.19033318340178        1.64436952964569        1.09732419020980
C            1.12546888879511        1.80603185660979       -0.34630902746122
N            1.80051701360893        2.70609779705287       -1.08897318049333
N           -0.13340463955479        2.00830011121571       -0.17910981871941
C           -1.21332068826135        1.34050742134072        0.11392802751163
N           -2.31918127015851        1.93967932520658        0.52915399190217
C           -3.29009333049846        1.01001252108677        0.37301970374477
N           -4.55727193734147        1.25555666859346        0.68753454411916
N           -2.89512315611923       -0.17583956483966       -0.12399187993339
C           -1.56674990451905       -0.07772340634166       -0.23099011878147
H            0.62360776568389       -3.63894908361085       -0.37612794580542
H            3.05457291177933       -3.41443367989424        0.74777387479026
H            1.29936016411551        3.50576958792957       -1.43865348987084
H            2.80669592205389        2.71801030419230       -1.08648429609114
H           -4.80192050171281        2.14724579487467        1.07880973772562
H           -5.24786619738545        0.54507324572778        0.52316783692307
