29
 energy: -51.167961395558 gnorm: 0.000395730443 xtb: 6.6.1 (8d0f1dd)
N           -1.13448609880654       -3.15492170989524        0.91480566051715
C           -0.61277205997514       -2.20149954611619        0.54904887343222
C            0.07382268901661       -1.00172953041547        0.20127655251423
C            1.44954596664744       -1.18262432634859        0.06012531892435
C            2.00779899031647       -2.47224152930623        0.05243665818520
C            3.36808620779113       -2.39223555101164       -0.23153108611038
C            3.71596053477184       -1.06103132421095       -0.37395422491381
C            2.57865442372022       -0.24512695566055       -0.17969260586422
C            2.74114105004988        1.11961430372183       -0.12735377685265
C            1.92782773911267        2.24496873473305        0.09764288813707
N            2.62246010669045        3.43084503150213        0.17187593472216
C            0.54304939298242        2.38179893647539        0.14604221844203
C           -0.55941053594761        1.54999822670122        0.04330716264032
N           -1.74350883773415        2.20176266335836       -0.02348320976139
C           -2.71160307631194        1.29423531339381       -0.10109216947162
N           -4.00894179171366        1.61953808027058       -0.20071577325365
C           -2.18740201190693       -0.03272584702734       -0.03773274117806
C           -3.02351165062077       -1.13762080483987       -0.16824408799928
N           -3.83489281118733       -1.93810703813364       -0.33017698699446
C           -0.78512083697254        0.10036345060946        0.05296520484475
H            1.45753791266062       -3.38208071564707        0.20087923825577
H            4.03388879190896       -3.23097395697734       -0.32355010569711
H            4.70183749186894       -0.68580806265335       -0.57894094582099
H            3.78150634140323        1.40254361134261       -0.27287532657430
H            2.13471392074193        4.25882922117564        0.46408082377320
H            3.61522470631963        3.41101030899908        0.32435000864688
H            0.21308204142263        3.41410077398875        0.21886303480939
H           -4.26111677397967        2.58435135051334       -0.31492935397065
H           -4.69528863676778        0.89786898135557       -0.33353347957897
