29
 energy: -55.193005913431 gnorm: 0.000992025814 xtb: 6.6.1 (8d0f1dd)
N           -1.77578191638993       -4.05573822360512        0.88980271568212
C           -1.72371821535035       -2.93630266162171        0.62703435600577
C           -1.71993289061042       -1.58108723731379        0.30649836760788
C           -0.60106121037435       -0.71222706525657        0.30648911725462
C            0.68676904144452       -1.18086655160040        0.41657774004563
C            1.92761267925506       -0.60062628462625        0.14725761082869
N            2.98910004078314       -1.39951687286851        0.08285419182609
C            4.01667647825383       -0.59884157197315       -0.29875586508806
N            5.24298941637241       -1.09045382769656       -0.48789335707286
N            3.71191108830583        0.68716323729821       -0.46787346460046
C            2.39582964106902        0.77814958142247       -0.17766211413730
C            1.82656791248640        2.02202034819847       -0.07289729751594
C            0.51941606794708        2.42616842404892        0.29056353198423
N            0.39571966958481        3.68334083783473        0.78928544003365
N           -0.63003239659513        1.82994409805593        0.10158197867400
C           -1.12883532840624        0.63982597489978       -0.02950737695478
C           -2.49161085195565        0.47026635298539       -0.37033681008698
C           -3.36936267655869        1.46972910992812       -0.78652023343455
N           -4.13023673435216        2.26117567283110       -1.12995721304351
C           -2.86192896163891       -0.87618793932520       -0.14580476360235
N           -4.08313809729502       -1.39550866624750       -0.32650025692629
H            0.77226192313111       -2.24688944486700        0.60611444072857
H            5.41230425708238       -2.06272968163403       -0.30461556526780
H            5.98709810740964       -0.47222714009853       -0.75265572303295
H            2.52964584410075        2.82932520689647       -0.24104528453725
H            1.18304846269804        4.30527545580359        0.81746667581935
H           -0.53076497577484        4.05398160229389        0.91332804314575
H           -4.83135148358828       -0.81772245485688       -0.66842326607146
H           -4.25762867193590       -2.36223148060634       -0.11221969296444
