29
 energy: -55.959016686301 gnorm: 0.000850000983 xtb: 6.6.1 (8d0f1dd)
N            4.82801004817597        1.63047414150439       -0.14860955649371
C            3.75270175191751        1.23070567530858       -0.08956318651538
C            2.41544148200245        0.75119078630592       -0.02708041442346
C            1.44905348491673        1.78701995135426        0.01388757119654
N            1.94543871778734        3.05581345283472        0.03956632091680
C            0.04101915622579        1.73937275868890        0.03159219998600
C           -0.94400209269710        0.78080045412021        0.02164383930360
C           -2.31119017663515        1.18665162935711        0.01098068981008
C           -2.76303806386758        2.50575021392804        0.01793638178650
N           -3.13912705555214        3.59315825904867        0.02216590280428
C           -3.14968692130021        0.05727427393996       -0.01416024513928
N           -4.48789587991686        0.05001357727106       -0.03572221201598
C           -2.31598467202360       -1.09460787405041       -0.01165408520188
C           -2.81952838337142       -2.39762677497905       -0.03076656444264
N           -3.32525646024926       -3.42895502128231       -0.04445536134608
C           -0.96113008758050       -0.70348839360554        0.01421870909289
N           -0.04237864324478       -1.63060361752703        0.04048974690945
C            1.24745616013377       -1.67790014524514        0.04637489591733
N            1.79275549959511       -2.90772612615308        0.08539220188992
C            3.10847080221000       -2.77202451833714        0.05211068814023
C            3.51729615504678       -1.43645095148148       -0.01004789707313
C            2.36298738852069       -0.64945102599688       -0.00583761588144
H            2.93564983913671        3.22580551754010        0.00019659253121
H            1.32320989966565        3.84418604404165        0.02964304074004
H           -0.38219872778869        2.74287364133192        0.04413527368212
H           -5.00314825085778        0.91343275170900       -0.03189932087525
H           -4.98417695618903       -0.82468283625055       -0.05121033245433
H            3.74390274777217       -3.63963946771336        0.07344913500216
H            4.53285975096744       -1.09249532586270       -0.04553895874652
