31
 energy: -53.815208050597 gnorm: 0.000858251565 xtb: 6.6.1 (8d0f1dd)
N            3.62602051294870       -2.57340678423735       -0.41319010525551
C            2.73463448422451       -1.85783728945285       -0.26843216211743
C            1.64762898083595       -0.98170818715061       -0.09881159114936
C            1.84512639007891        0.31390174125389       -0.60916448005121
N            2.88413773686980        0.50164760922612       -1.45073854992806
C            1.19490293645548        1.49722129524296       -0.16446688219944
C            1.93744877236506        2.65957240326125        0.10330621870621
N            1.18579433485306        3.63763695967777        0.60912931893645
C           -0.06242251977028        3.18285863521190        0.61337612450031
C           -0.15573827144521        1.84672910929155        0.17024865288572
C           -1.38887923905805        1.18220126851368       -0.05250079975944
N           -2.46196587808827        1.98511844577310       -0.22653615899806
C           -1.61325964929548       -0.20531102781464       -0.09359707488727
C           -2.89315362309725       -0.78546497215597       -0.32021930582419
N           -4.04075946152698       -0.16668854145157       -0.79296568112773
N           -2.93208849140316       -2.08152900877084        0.00177681618699
C           -1.72292410367078       -2.39115713763835        0.46002046483062
C           -0.81914421002079       -1.31403518280713        0.40165707744654
C            0.55681118148165       -1.54614548941769        0.62194944300973
N            0.87204599661268       -2.55682935093135        1.45924629757835
H            3.15149144158415        1.44229199890138       -1.68574777979835
H            3.53880393982028       -0.24449928661435       -1.62548314854763
H            3.00487310713267        2.78294574061104        0.03778848373110
H           -0.84765243779981        3.80833619812370        1.00320092245766
H           -3.38362435011306        1.59619727990223       -0.08592263483769
H           -2.33285290927065        2.97496180036647       -0.10204514630846
H           -3.90773229563360        0.35975053049480       -1.64760525443801
H           -4.78430416287253       -0.84842759600215       -0.88635195382141
H           -1.51396240963114       -3.41565335630374        0.71354184718042
H            1.81174415715078       -2.91973772002209        1.48007462583721
H            0.13994990088265       -3.10008194338140        1.88192851306134
