35
 energy: -61.499010113010 gnorm: 0.000673593097 xtb: 6.6.1 (8d0f1dd)
N           -6.00458730929474        1.04345288225408        0.28894221266706
C           -4.91179026062575        0.70127063248884        0.16053238687434
C           -3.58911661293513        0.29214556762318        0.03281525127304
C           -3.14345546286730       -0.93653685358779       -0.48672817094505
N           -3.96387620686510       -1.88380516028846       -1.00381725159880
C           -1.73098710752104       -1.00013993421210       -0.33251535426993
C           -1.04099584777302       -2.18931684858874       -0.52750638865149
N           -0.00062921113648       -2.66932350386536        0.09140264857682
C            1.06153649659256       -2.18188666826735        0.66203095027429
C            1.74935664004894       -1.00376433028891        0.39237301196965
C            3.16805873374259       -0.94496073015576        0.44969626066222
N            4.01780347377854       -1.89514604068993        0.91459955591944
C            3.58077580817667        0.27876998500911       -0.10846705676465
C            4.89184701346634        0.67849819160851       -0.34058709120873
N            5.97230748872086        1.01491374754556       -0.55819978937936
C            2.42592869990260        1.02311463142410       -0.44139234008749
N            2.50276426515471        2.29152787661987       -0.99686111148569
C            1.26980813222754        0.28305032350524       -0.10234065804754
C           -0.00333703631464        0.88813257121378        0.08402719727321
N            0.01930034001768        2.24458594969280        0.20154557651159
C           -1.28256374325354        0.29097480716914        0.18558824243437
C           -2.45921806869041        1.03267000189988        0.45134974773379
N           -2.57188800987556        2.29881274044921        0.98817520189088
H           -3.61391736595950       -2.81140997780557       -1.16251224051801
H           -4.95232402231211       -1.78586282379043       -0.84402103973680
H           -1.52585568162695       -2.94127971604013       -1.14942186604008
H            1.55951141902093       -2.91275649615150        1.29825356849790
H            4.99214874248395       -1.80575819968942        0.68033769396686
H            3.67316024640521       -2.82071243083940        1.09540498528543
H            3.44131360011057        2.53265536916431       -1.28878095699198
H            1.81503270279052        2.49055550231434       -1.71070617023523
H            0.90663780796059        2.71695431119982        0.16427143311839
H           -0.81478948999989        2.77228029093262        0.00852696098150
H           -1.91578770495608        2.51863968111157        1.72450211312891
H           -3.52514514729358        2.55150563813493        1.21415434222125
