28
 energy: -55.454030905090 gnorm: 0.000987114173 xtb: 6.6.1 (8d0f1dd)
N            2.98165036041873        3.17512718460095       -1.09239070680391
C            2.27906008837551        2.35189382256364       -0.70155139723586
C            1.39370244181008        1.36015970129873       -0.23416830256814
C            1.89089724194605        0.05987476398381       -0.24504858693667
C            3.20718023945952       -0.26883253671704       -0.55361934180134
C            3.46553433634500       -1.49544147079313        0.08526379882996
N            4.63105554943492       -2.14655876546746        0.14638829248950
N            2.37513239172355       -2.00715881886313        0.70195095952767
C            1.35707211604194       -1.19377544992015        0.44668497781374
N            0.14621017611960       -1.61792838404076        0.62241775214009
C           -1.05133877997580       -1.18552577835026        0.38350339756895
N           -2.04048387009994       -2.06326125017841        0.20617248341638
C           -3.14927350990222       -1.37697726655715       -0.10111246678675
N           -4.30517041327925       -1.99517667438942       -0.34016719390808
C           -2.93048201117745        0.03439044738944       -0.14004887633583
C           -3.90153705669045        0.98875457832155       -0.42359565901358
N           -4.73645615893758        1.74176526582029       -0.66784270452597
C           -1.58618632363987        0.22311144621754        0.19946098647524
N           -1.01770460601230        1.38591851874905        0.32149788725422
C            0.18099393515133        1.88500826590888        0.34992457671380
N            0.26643946387286        3.12350391159636        0.89477075774206
H            3.91729647640918        0.32819634935140       -1.09089934379298
H            5.42365369882711       -1.83862341609078       -0.38737990780386
H            4.66082760397008       -3.02077666710480        0.64139839122065
H           -5.12845775375864       -1.46789592846196       -0.57429617770562
H           -4.34053143284388       -2.99718895458152       -0.26665418667395
H            1.09323060969975        3.68101920043147        0.76259623860064
H           -0.59289843388990        3.57724005518230        1.15547402439739
