25
 energy: -51.518756558680 gnorm: 0.000875546158 xtb: 6.6.1 (8d0f1dd)
N           -0.00011666857021       -3.29412578273785       -1.59092945521973
C           -0.00032736489134       -2.24930755525507       -1.12003379268565
C           -0.00020551985450       -0.92815195495702       -0.60138475607516
C            1.26186412895724       -0.43620423863492       -0.25037702306765
N            2.31314866587071       -1.23940500330478       -0.19427658952023
C            3.26453822307041       -0.52877953488101        0.46744940533217
N            4.44808520647395       -1.06529116395396        0.73927357922265
N            2.93572240378160        0.71896377281931        0.82287345987798
C            1.70773872768247        0.89954641758812        0.33495232485449
N            1.18088519561937        2.07057324796535        0.21107706430500
C           -0.00007637432462        2.47743279181549       -0.21637280282804
N           -0.00004515007622        3.57273587225604       -1.00467620122404
N           -1.18105987442825        2.07065440221717        0.21109104890266
C           -1.70798625931703        0.89966423571856        0.33500324290655
N           -2.93596883026167        0.71916704463772        0.82295626398353
C           -3.26487411771718       -0.52856391463143        0.46756462417801
N           -4.44844495470073       -1.06500052764400        0.73943635383782
N           -2.31355268468081       -1.23925731290265       -0.19418149971651
C           -1.26221896612337       -0.43612102511001       -0.25032185061516
H            5.12066842388309       -0.53576530556357        1.26423816805236
H            4.64324080569258       -1.99797275767871        0.42121348335561
H            0.86891013614142        4.05762184401999       -1.14839413826951
H           -0.86897129061127        4.05767623466131       -1.14838583891556
H           -4.64366134690464       -1.99767991628412        0.42140474997786
H           -5.12097867851075       -0.53542563255976        1.26441457125022
