30
 energy: -59.699991891809 gnorm: 0.000541175558 xtb: 6.6.1 (8d0f1dd)
N           -1.83292106461964        3.60703140125032       -0.82159684577398
C           -1.46854126634098        2.54925194821557       -0.57595392881581
C           -1.03103612663120        1.22190691385196       -0.30188833284203
C           -2.09035539363640        0.31770779504935       -0.13361313952909
N           -3.33218928295548        0.77616214342284       -0.18043203967559
C           -4.11686819571540       -0.28609665341811        0.14319016399419
N           -5.44136987495879       -0.16870261842138        0.20142042871795
N           -3.46294006513291       -1.42087137513765        0.38616819395533
C           -2.15650546960738       -1.12777161289704        0.20408999570397
C           -1.26166293308591       -2.16658245237188        0.27747529287537
C            0.10829309159729       -2.35754855280227        0.02367703426937
N            0.46398296322304       -3.66940818145263       -0.04124442204435
C            1.16534370053170       -1.42650921814974       -0.11853844875596
C            2.40361374939805       -2.03972748655984       -0.44321447802868
N            3.35473011771384       -2.57970800332570       -0.79566493601856
C            1.28319785697322       -0.02902924511749        0.02125516451393
C            2.53249281702768        0.58977679326270        0.17103818110716
C            3.79445399599274        0.07773067438844        0.46754021471693
N            4.86907001156970       -0.20360600763942        0.76626692469957
C            2.30417142707500        2.00387484922394        0.10062608525128
N            3.22677126853751        2.95607974956611        0.22630373096699
N            1.01897146223990        2.27333885558695       -0.10939384064222
C            0.34267370175212        1.11210168807677       -0.12782508262503
H           -5.85687768139114        0.72372170924637        0.00363530767274
H           -5.99994482137915       -0.95931422071226        0.46608546527422
H           -1.78269051836263       -3.09278932097452        0.50257205058283
H            1.41484434106944       -3.94166306305899       -0.22226103474656
H           -0.24083522468093       -4.38234472740054        0.00792791539860
H            4.18788347766407        2.71496849987288        0.39747444088224
H            2.94113749942925        3.91816705022476        0.16856886581659
