30
 energy: -59.703406108865 gnorm: 0.000933355759 xtb: 6.6.1 (8d0f1dd)
N           -0.02824343893875        3.98221149007526       -1.15534583525395
C           -0.03040074460505        2.87648778660605       -0.85129116133687
C           -0.07491244047862        1.49509691655605       -0.51844175227241
C           -1.37958433448003        1.01332846792781       -0.23055502419954
C           -2.46855840151413        1.85052750855024       -0.14379280987556
C           -3.55569948782909        1.07037627641310        0.36677112121493
N           -4.78899528310199        1.51188759249553        0.62310913704702
N           -3.20185411937730       -0.19131997894025        0.57426491245437
C           -1.91194390366548       -0.31996082232717        0.18413470126105
C           -1.42436744691042       -1.60312778776147        0.08385790885200
C           -2.33139857449553       -2.62406692151037        0.45057379749568
N           -3.01492888556371       -3.50510080192955        0.72417908277117
C           -0.16167313433810       -2.09021768172267       -0.44154167729116
N           -0.21351444995670       -3.26564793137112       -1.10928278569718
N            1.01674678018731       -1.59857064909040       -0.26248456262066
C            1.59796391638444       -0.45425377746758       -0.01268332707399
C            2.93395361357211       -0.33155760027564        0.37803705774771
C            3.81374493095466       -1.31781419731034        0.80835646371123
N            4.58204562412973       -2.09408826228298        1.16954713939985
C            3.27859401844479        1.04705936289238        0.16670269597844
N            4.47840070424217        1.58955620871640        0.37849950182246
N            2.25109720255600        1.75806792105790       -0.29021958472713
C            1.17923009666055        0.94074022311047       -0.33576642714359
H           -2.50117081398263        2.89971513893463       -0.36197171084657
H           -5.46571737209809        0.86534219479531        0.98975711619361
H           -5.05131781955328        2.45985384702914        0.42291862506179
H            0.65851094857664       -3.70612901691435       -1.35201641099019
H           -1.05384841561609       -3.81885591537989       -1.09685006822040
H            4.61477306595909        2.56178075963535        0.16336333437011
H            5.23051236683687        1.03773775159034        0.75190924926711
