27
 energy: -51.710009793947 gnorm: 0.000917627238 xtb: 6.6.1 (8d0f1dd)
N           -3.97571829014611       -2.06422855920165       -0.09433820935748
C           -2.99197603095916       -1.47182077895376       -0.05210799959726
C           -1.76644522222026       -0.75226787702861       -0.00585116567287
C           -1.99812658653289        0.63542950328715        0.06957873812818
C           -3.28041562143446        1.16338599566434        0.16658293286065
C           -3.16868774859584        2.55884382229502        0.04512923741052
N           -1.93097592545741        2.96424859289050       -0.13754736841593
C           -1.12898604806946        1.87070195071595       -0.09685265305681
N            0.13158322044938        2.09177862237990       -0.16990819538733
C            1.22323259736224        1.35763465414857       -0.09773817143744
C            2.46888827571788        1.96093809747781       -0.05158654948294
C            3.42773729509266        0.91579160492440        0.02019207973378
N            4.75675724376545        1.04289267269365        0.06347824235571
N            2.84706011207392       -0.28760165555523        0.02719792295321
C            1.51198837534568       -0.10837465224592       -0.03110910762006
C            0.75631454851945       -1.27196991540501        0.01059640484198
C            1.61453881336221       -2.40451304110620        0.12756283071328
N            2.25757203784568       -3.34892600676282        0.23476276287677
C           -0.63228171831196       -1.59433671663371       -0.05032116355079
N           -0.89236231985726       -2.92575620741502       -0.14499143742690
H           -4.19544007333605        0.62273412374118        0.31250611899637
H           -3.97475093332359        3.27037590622810        0.08804126560546
H            2.65901875285800        3.01435312011887       -0.07027127548579
H            5.31724954961910        0.20980047488588        0.11096021338379
H            5.19053488839588        1.94788344929217        0.07544047036658
H           -0.13737989625952       -3.59004463608435       -0.14967787673527
H           -1.83948260960017       -3.26384558415304       -0.14168066589882
