32
 energy: -59.136463416747 gnorm: 0.000617260896 xtb: 6.6.1 (8d0f1dd)
N           -4.25188401703028        2.49336993659912        0.93570803701604
C           -3.47830498607860        1.68653908111438        0.66229367482247
C           -2.57492221955472        0.67581519482740        0.34432232039706
C           -1.22750942625506        0.85002821766571       -0.04349630011581
N           -0.78638762077977        2.03475427929558       -0.36703554946960
C            0.34068728113593        2.64969270043334       -0.55829302708591
N            0.23343726417379        3.81514938313329       -1.25138928337735
C            1.62541485914935        2.35176445846037       -0.01707639240918
C            2.25165628888970        1.16204555796864        0.23220948318094
C            3.59341069408916        1.13508888647973        0.67847289651526
C            4.09739405022926       -0.14844677648132        0.54408408746861
N            5.35574047291925       -0.56714770190598        0.80001788952278
C            3.06102730615290       -0.97937019712442        0.03664023538181
C            1.89818703134659       -0.24518745541928       -0.11340721754992
C            0.67367324000024       -0.88414733889390       -0.42382348579572
C            0.85111323455473       -2.23148098022766       -0.84030046579028
N            1.04404423409763       -3.27972925452319       -1.26534498012056
C           -0.65288400110641       -0.49488192076553       -0.24966175763148
C           -1.72859230740530       -1.40978438735788       -0.10798469311592
C           -1.75917872617598       -2.80018994043165       -0.21059470579831
N           -1.94442258702487       -3.93615704971374       -0.24044619730829
C           -2.88562637145364       -0.70358541359609        0.30377739881031
N           -4.06993182259917       -1.25575927186540        0.60370628358062
H            0.99221345657811        4.47186259917427       -1.27033493222282
H           -0.69013346144440        4.13197317113125       -1.49244675927632
H            2.22722099118671        3.23211076961527        0.18285473233874
H            4.14103481518505        1.99733145484093        1.00951878442863
H            5.56285100173557       -1.54925516644690        0.76402088517601
H            5.98779634209429        0.03268770241264        1.29942910318710
H            3.16539888856366       -2.03311530267346       -0.14299237321581
H           -4.83866011415276       -0.67810272990922        0.89549251219654
H           -4.19686830041967       -2.24882721601951        0.50624421745826
