29
 energy: -55.178413181900 gnorm: 0.000605696217 xtb: 6.6.1 (8d0f1dd)
N            1.33174158774568       -3.55585363079083        1.39289564356866
C            1.01130729061268       -2.53311217356930        0.97946499351222
C            0.63112959608675       -1.24708855647481        0.52000781901878
C            1.72011890630925       -0.41229857791311        0.24851664412344
C            3.04076878582898       -0.82778520680240        0.13699049496896
C            3.74236096614567        0.24255726175001       -0.45838748535779
N            5.02620711198513        0.24780787763587       -0.83770690067926
N            2.96972768500110        1.33210854958533       -0.64709830551371
C            1.76082620805994        1.02761077689753       -0.18003643834607
N            0.90619738559579        1.97361506926605        0.05374945075895
C           -0.34916425332150        2.15925397719160        0.31112551730687
N           -0.64556797696367        3.29730092479592        0.98259727911953
C           -1.46533411792969        1.37387820801994       -0.14784154099366
C           -2.62703482360413        2.11940481082155       -0.44528224654488
N           -3.53693967315272        2.78750384429802       -0.65896252528170
C           -1.60381568035644       -0.00103151602204       -0.24065276425256
N           -2.80840054716932       -0.46960773213941       -0.60577845199235
C           -2.81984246565150       -1.78391540790849       -0.35248403798305
N           -3.90024251748903       -2.53028399089523       -0.61642280862876
C           -1.58642889359092       -2.23105141581510        0.17870419847620
C           -0.73952681084955       -1.13240739056196        0.21507735176539
H            3.44261675995937       -1.79257286193239        0.37643120112949
H            5.63082251429062       -0.52250799115827       -0.61832376468366
H            5.40067879104020        1.08487975550548       -1.24770001996521
H           -1.59617351639247        3.62557296794769        1.01867023346588
H            0.10364734337731        3.94488422798911        1.16051965270476
H           -4.72367706061884       -2.06918654135084       -0.96134619641067
H           -3.94644839501246       -3.48841420815552       -0.32123231356357
H           -1.34242252063753       -3.24300634391315        0.43590872777744
