26
 energy: -43.197196422533 gnorm: 0.000399376057 xtb: 6.6.1 (8d0f1dd)
N           -0.28772395577469        3.80223408414714        0.14122679350600
C           -0.22498379928220        2.65846536369878        0.08916485952790
C           -0.12494537842213        1.23545131013451        0.03305418571002
C           -1.36094758055714        0.59399508273872        0.01488649931393
C           -2.55755488352353        1.34033842735626        0.02689137186371
C           -3.64642595230875        0.48131086541762       -0.01727165689756
C           -3.17803492775847       -0.82295200324945       -0.05145336474476
C           -1.76703562207468       -0.83099821625904       -0.03076755340247
C           -1.11611531212988       -2.04851516088277       -0.03365948863858
C            0.20444828982649       -2.51729124233830       -0.01721428434827
N            0.32018236350239       -3.89178209904697       -0.05813400942376
C            1.42367775732890       -1.83709658162120       -0.03043875158383
C            1.84603565191419       -0.52261029085615       -0.03405175887471
N            3.19232801795600       -0.36793493852984       -0.05607870878394
C            3.45143221754441        0.93376732445568       -0.04117709272125
C            2.29139320553983        1.70128591415510       -0.00299498581354
C            1.20927102258351        0.80287241068932        0.00060909599259
H           -2.61192920185820        2.41232185699327        0.06044869657763
H           -4.67863365869275        0.78036356622256       -0.02347525225857
H           -3.78848343909341       -1.70687766313478       -0.08758096550429
H           -1.82881565430451       -2.87081907506447       -0.05549678601763
H           -0.48244757014392       -4.45510612991354        0.16134691869403
H            1.21788892873366       -4.30117601138094        0.13229977262957
H            2.28723196166819       -2.49654251186792       -0.04594030300998
H            4.46686000632357        1.28724987385899       -0.05712382771521
H            2.23597399520311        2.77207665517746        0.01702311992293
