25
 energy: -43.491825525262 gnorm: 0.000968540691 xtb: 6.6.1 (8d0f1dd)
N           -4.35787358824353        1.76924565128616        0.01244075839693
C           -3.45674859551074        1.05343938227029        0.00325466733545
C           -2.39421401589553        0.15632595447392       -0.00344668943726
C           -1.00992000682263        0.43941149511196       -0.00492709771194
C           -0.55546820142464        1.75669445037905       -0.00549359761554
C            0.68085571629702        2.37520103000286       -0.00428412161427
C            1.99995335869259        1.93572002994032       -0.00009729454355
C            2.63068547747942        0.70268586806577        0.00115693797422
C            4.03528469591409        0.59718617164108        0.00552912556523
C            4.33916734860800       -0.75594901802215        0.00299835613346
N            3.24666796117917       -1.52090915221966       -0.00256247111353
C            2.17474840904347       -0.70779260205455       -0.00353850832202
C            0.93936897717511       -1.32631416554641       -0.00793448290718
C           -0.37647811247020       -0.88686372533185       -0.00806188712179
N           -1.31982858224891       -1.84862283760503       -0.00923469064265
C           -2.51814770840394       -1.26118548280052       -0.00634760036282
N           -3.65956461397798       -1.96299964742800       -0.01908198850808
H           -1.38287792969475        2.46271091871341       -0.00649028423219
H            0.60310857342227        3.45745765447733       -0.00563882886831
H            2.71414272787913        2.75522740753536        0.00266512554948
H            4.73024816646973        1.41489227847385        0.00984768691173
H            5.31458678135815       -1.20917788477639        0.00478837474645
H            1.01543328327860       -2.40863055708368       -0.01072623224932
H           -3.61240835536063       -2.96536631801167        0.01535806943281
H           -4.54756427004326       -1.49647490769149        0.02933737280465
