24
 energy: -48.546363767543 gnorm: 0.000648629715 xtb: 6.6.1 (8d0f1dd)
N            3.08533872423353        2.53247047190272       -1.12888004763801
C            2.27927363025157        1.80193732132973       -0.77073158465650
C            1.30416922602446        0.84172609115898       -0.37634758003136
C            1.80165518980492       -0.43687841517176       -0.12564025228829
C            3.14507545794962       -0.77521973239291        0.00752957476843
C            3.17312941129659       -2.02992002919673        0.64055321418141
N            1.97075992829649       -2.54247788185130        0.85873699308033
C            1.07863776047096       -1.67272489103863        0.34679466286379
N           -0.13174660938188       -2.05027353151026        0.13879146598687
C           -1.30724994279197       -1.62380189234928       -0.21595532622240
N           -2.08911108957678       -2.49994257861262       -0.87394943636685
C           -1.89047935629635       -0.37320727383128        0.18626736405443
C           -3.28143593761805       -0.41016347073569        0.43881403790424
N           -4.41200545681454       -0.50498058299215        0.60971581674096
C           -1.28711632931987        0.86965113476470        0.28972423947363
N           -2.05090441302124        1.94002810051231        0.59022050661652
C           -1.28774774673127        2.99454373439030        0.35236254956386
N           -0.05187886639669        2.73641899750708       -0.07971928311495
C            0.04930229905004        1.40095359182882       -0.10968163795579
H            3.99166695713969       -0.17444306941650       -0.26034282489099
H            4.04978668538668       -2.57374697676676        0.94505103728245
H           -3.06764642827118       -2.30688769630080       -1.01073122227149
H           -1.74264274874960       -3.43303010335048       -1.02605234923267
H           -1.63888482393553        3.99891886332211        0.49612991795307
