29
 energy: -51.175138836297 gnorm: 0.000722132499 xtb: 6.6.1 (8d0f1dd)
N            4.39554254839738        2.43367498485126       -0.00950586999558
C            3.56620205701560        1.63576358814726        0.00262590666965
C            2.59897853552964        0.63232303389762        0.00872301014796
C            1.18902803018282        0.81947617739184        0.00961276508446
C            0.66751087729897        2.10626121505616        0.01140830915875
C           -0.61144383517980        2.66287957738254        0.00950705938470
N           -1.84396052655295        2.22553095866675        0.00513629164852
C           -2.42375646338391        1.05192899093880        0.00113160795950
C           -3.82191632481494        1.00864284837508       -0.00845807860912
C           -4.25634054697387       -0.32286298849771       -0.01654797313025
N           -5.53912990092845       -0.74373782763482        0.00606517702339
C           -3.11922818617123       -1.15331827437406       -0.00790029596704
C           -1.96058655748869       -0.37894808478243        0.00145619785864
C           -0.71287832864984       -0.98004719920161        0.00651562793622
C            0.59339694914204       -0.51485901140885        0.00826110729165
C            1.67028336937595       -1.44200155698697        0.00674012715015
C            1.56022399154830       -2.83054408491641       -0.00308295884281
N            1.50256738575064       -3.98025156992952       -0.01354683521815
C            2.89936214124489       -0.74550574266996        0.00685770666763
N            4.12693554298448       -1.29558422959101        0.02696015398318
H            1.44719075022731        2.86329909805894        0.01394450117571
H           -0.59820897110120        3.75332354140588        0.01153850249146
H           -4.44792017536862        1.88000932961432       -0.01059475987184
H           -6.27971071812130       -0.07807381804685       -0.12588444062861
H           -5.74542155672789       -1.71748595467281       -0.13030532640351
H           -3.14153017887425       -2.22871779955704       -0.00986182043689
H           -0.76736663744443       -2.06709476336322        0.00691695037427
H            4.93994192358600       -0.70840034107893       -0.03734225026601
H            4.23187890569751       -2.29269664757407       -0.03994579173605
