27
 energy: -47.736077784836 gnorm: 0.000760453616 xtb: 6.6.1 (8d0f1dd)
N           -3.87047399591408       -2.69307520610190        0.00814994644551
C           -3.09706871781455       -1.84184788363163        0.00121343238639
C           -2.20382573143589       -0.76903892555471        0.00063240229939
C           -0.78937386659201       -0.84809913059064        0.00033949011485
C           -0.18756070521684       -2.10776450734656        0.00113416984535
C            1.10596968216616       -2.59419357351287        0.00137000693951
C            2.37063701750485       -2.01585802828337        0.00066362933594
C            2.86105347580967       -0.72274569069141       -0.00066341772406
N            4.20727971134515       -0.60529079629759       -0.00095505734812
C            4.50263931755530        0.68994597891731       -0.00228150970379
C            3.36312870979359        1.49122776824544       -0.00292526288154
C            2.25795673861004        0.62562886667630       -0.00187442999274
C            0.95773430588969        1.10805701395266       -0.00200978939190
C           -0.29896676445232        0.52870947574079       -0.00101703823243
C           -1.44899047351544        1.37032019744543       -0.00083019194504
C           -1.44966929101844        2.76532136287240       -0.00033063016640
N           -1.49165244056166        3.91491745350537       -0.00198773244341
C           -2.61755292753013        0.58502796567486        0.00027964550377
N           -3.88473453237746        1.02966860071401       -0.00332682915304
H           -0.93468103567738       -2.89798825689557        0.00195246379254
H            1.14314163864663       -3.67812273261141        0.00236083588811
H            3.18764603960928       -2.73001903559598        0.00125104258360
H            5.52877548927426        1.01190406507989       -0.00271747046670
H            3.32850004953613        2.56370513261723       -0.00397178945651
H            0.91591184871983        2.19563371960810       -0.00303515703928
H           -4.07414787253192        2.01634809642144        0.00763520366347
H           -4.64988687852253        0.37855444064250        0.00920321354641
