28
 energy: -51.446817930111 gnorm: 0.000904461680 xtb: 6.6.1 (8d0f1dd)
N            1.96610004355866        3.31518630293513        1.32442000872731
C            1.37684642758940        2.41983275711680        0.91488519528047
C            0.68200602040554        1.26432363547132        0.46464076166448
C            1.54694837586080        0.18269466030557        0.21322101426615
C            2.92281606019872        0.28524605098298        0.05918817072569
C            3.36157733592004       -0.97146042800804       -0.42564515520705
N            4.60718770182413       -1.29099643702313       -0.80439932805335
N            2.36442321000009       -1.86753680722848       -0.50212449932488
C            1.25557103382885       -1.24758275804826       -0.08765446288617
N            0.20656946591872       -1.95486558203034        0.21090242363394
C           -1.06168660912983       -1.80427523684544        0.41208647253288
N           -1.66155173544180       -2.77550253628189        1.14411689662323
C           -1.92767578234976       -0.80688522206242       -0.17633741599953
C           -3.18036812774782       -1.32878939841931       -0.56482304631549
N           -4.18409299497269       -1.80627113098390       -0.85821908308324
C           -1.73573556287224        0.55523839299870       -0.34027588610213
C           -2.77732374757691        1.39120164858943       -0.79342363029211
C           -2.46633207989447        2.70651320837034       -0.49303210809513
C           -1.21022655098281        2.75799072120282        0.11071875464650
C           -0.66572573711201        1.46716049363488        0.16804219457538
H            3.53465271171496        1.15224438646244        0.21354469696653
H            5.37111609086632       -0.66301862006127       -0.63275293894050
H            4.78881120095241       -2.23542777332788       -1.09471759282697
H           -1.10330936137929       -3.57120989795292        1.40346582751987
H           -2.66344431105454       -2.86814419669826        1.13909756057224
H           -3.69210922923739        1.03943504398682       -1.23204516307885
H           -3.09023233801664        3.55777161164461       -0.69637139842368
H           -0.69885786317065        3.65244183846475        0.41365003589975
