28
 energy: -56.253426620722 gnorm: 0.000873328883 xtb: 6.6.1 (8d0f1dd)
N            5.38662585017649       -1.32367340889683        0.58914253967908
C            4.37667711125802       -0.79970139164114        0.42048772446751
C            3.17526882268168       -0.12794924991213        0.22040124042347
C            1.91388318946221       -0.67437234226135       -0.06958952827546
C            1.74650149756809       -2.00764150270891       -0.42909765787155
C            0.59781466772872       -2.71896890799496       -0.74527040087194
N           -0.63193323250637       -2.54775915865266       -0.36071138756653
C           -1.45736320745015       -1.63734728894045        0.00482973506725
N           -2.65681975073673       -1.99693273328450        0.50859570291953
C           -3.44835508044964       -0.93901722023277        0.44176613291418
N           -4.72171960661761       -0.95888733102663        0.82731786887722
C           -2.76487428592642        0.22869038208644       -0.08257728281715
C           -3.43670928066093        1.43246604533396       -0.28162767451537
N           -4.11979103010887        2.34860781358088       -0.41239168019009
C           -1.44017689514429       -0.15794430965457       -0.26400748303958
C           -0.34294379469692        0.70733638960716       -0.37819745597375
C           -0.67126432180603        2.08768545891442       -0.50649490304535
N           -0.94402840233597        3.19061539262854       -0.65383475030147
C            1.02715205140367        0.51440726821131       -0.17606008028309
N            1.74806359098171        1.63533543334342       -0.01057990476881
C            3.01100631384967        1.29089334677991        0.25012130178956
N            3.95381994667228        2.19964720894262        0.49777683738928
H            2.67341004607967       -2.56301310071831       -0.52389469757837
H            0.74166889880008       -3.65783231054081       -1.27572017052650
H           -5.10703999929544       -1.81259361891325        1.19250384926054
H           -5.30088404109617       -0.14435395158897        0.71296257357678
H            3.70104539859675        3.17263792506742        0.47820030220394
H            4.89842810456976        1.92117904687232        0.69850502335695
