26
 energy: -47.200986983366 gnorm: 0.000693199469 xtb: 6.6.1 (8d0f1dd)
N            4.20410445276167        1.57284943010411        1.00480482848307
C            3.36537132891529        0.85480826732375        0.67598157181441
C            2.36854254658345       -0.02097495088513        0.27045217032798
C            0.99633820691638        0.25496731282781        0.09339838865987
C            0.51214464536735        1.54656737007455        0.04623750603403
C           -0.76670885055991        2.07206233897860       -0.22236097530473
N           -0.81592896951586        3.36744404100244       -0.64962607506814
N           -1.95987410204685        1.56047482047231        0.00852747162726
C           -2.49489282651482        0.38782812751940        0.08194506475677
C           -3.84922510647165        0.23025937151932        0.45333942291116
C           -4.20228616391163       -1.09798330718739        0.32530555656310
C           -3.09269342248035       -1.85477830433762       -0.08109946684995
C           -1.98639085536360       -1.02193182508091       -0.21775438327753
N           -0.79477587381657       -1.52227831978101       -0.40916842027327
C            0.41749941660559       -1.07453413918721       -0.30024152658756
N            1.41399500005126       -1.96808048132588       -0.45557917400819
C            2.55753695952869       -1.38413842972739       -0.10646524536130
N            3.72508969877225       -2.03931557997197       -0.12978128898738
H            1.27844760311480        2.30725858374607        0.16963572241410
H            0.00850371827425        3.94048475820928       -0.62726388933821
H           -1.71477483638632        3.81743662184777       -0.66636762238902
H           -4.49327163642083        1.04374808044935        0.72835420174548
H           -5.18384073202401       -1.49951285150370        0.50755369888616
H           -3.07219367339552       -2.91547305357338       -0.24050370357283
H            3.73137742362959       -3.00289471059330       -0.41208730119848
H            4.57084551520758       -1.59321132860447        0.17660113529198
