29
 energy: -55.970026984555 gnorm: 0.000573312950 xtb: 6.6.1 (8d0f1dd)
N            5.42789238730969       -1.27611290789163        0.45368982059284
C            4.40623612464499       -0.76201183397717        0.32716812568077
C            3.18979191673191       -0.10543837207483        0.17794657858625
C            1.92543923285494       -0.67235794431737       -0.08505795813194
C            1.77571783821598       -2.00770173094678       -0.43535133091686
C            0.64460961315324       -2.76961112359701       -0.70251682462191
N           -0.60133778053909       -2.63230689446659       -0.35183568108483
C           -1.44472267504714       -1.70852041730543       -0.01720373441343
C           -2.73116638979840       -2.05348340121552        0.43754962981371
C           -3.55646416041194       -0.94088837142205        0.37148541002785
N           -4.86085202741126       -0.86184563503118        0.66812797195770
C           -2.77509230795821        0.18024718575702       -0.08813999825148
C           -3.39517317648229        1.41157973172927       -0.30772902042669
N           -4.06303415694129        2.33480123879001       -0.46620902973492
C           -1.44331215154938       -0.22236134761083       -0.23370058940394
C           -0.36612617265116        0.66358508514522       -0.30681246304408
C           -0.70005499896242        2.04782531139404       -0.38348923115067
N           -0.95919775944814        3.15975345620180       -0.47796101960301
C            1.01726456957780        0.49390010808135       -0.13674263534244
N            1.71627124196039        1.62542936612504        0.03886796185593
C            2.99767640010116        1.30321065922515        0.24738050404804
N            3.92642849021184        2.23264208263576        0.48360360223149
H            2.71385989451009       -2.54411608293129       -0.53408050494276
H            0.83259304050600       -3.73831866894028       -1.16239720711461
H           -3.02465792165307       -3.04714699696365        0.71447859848589
H           -5.35673003545647        0.00016203047756        0.51326428387847
H           -5.36272563031072       -1.67079785031280        0.98785801495949
H            4.88606716102088        1.97590960664585        0.63283303563433
H            3.64866075561464        3.19852518269548        0.48747961193324
