25
 energy: -48.266856845737 gnorm: 0.000914182518 xtb: 6.6.1 (8d0f1dd)
N           -4.41793403846247       -0.58578810567281        0.49962691336909
C           -3.28508112180837       -0.48489439553443        0.33856151297197
C           -1.89275628922333       -0.40195363318100        0.11154855028680
C           -1.32248368569153        0.85941441771088        0.24257594737114
C           -2.08118353642967        2.00959114233237        0.53850581395235
C           -1.27486454322549        3.10257527294487        0.26339011774158
N           -0.05928188242741        2.74676878287565       -0.16252117901820
C            0.00597267544803        1.40768895163607       -0.15436093820809
C            1.26552722613849        0.85094482616935       -0.37989308752478
C            2.24373320027966        1.81109408280873       -0.77215136569796
N            3.06226297754807        2.52777732025912       -1.12986996683521
C            1.78106237077401       -0.41834060000091       -0.09788344263720
C            3.12868742706965       -0.72146266884697        0.07769773465530
C            3.17155137923702       -1.99076284113662        0.68079529979348
N            1.97722818148425       -2.53872146928891        0.84052769167531
C            1.07866975972096       -1.67132759260076        0.32729800366573
N           -0.11928533499488       -2.07842283100766        0.08562501048696
C           -1.29172465291615       -1.64838228574433       -0.27578590295853
N           -2.06344935192055       -2.53987674493526       -0.93605451018198
H           -3.10114715253413        2.02461874488428        0.86869319470088
H           -1.52342542925016        4.14342034545943        0.36157676784114
H            3.96616959203692       -0.09133839521248       -0.14863700296177
H            4.05202656441594       -2.51801758318583        1.00248836774138
H           -3.04650857035247       -2.37062360313507       -1.06790030890731
H           -1.70682879811551       -3.47268267099716       -1.05824840682339
