28
 energy: -51.444492535250 gnorm: 0.000780643298 xtb: 6.6.1 (8d0f1dd)
N            4.42982721897461        2.35152227980888       -0.02678218308388
C            3.57357934969077        1.58259429977835       -0.01425899376288
C            2.57065052327436        0.61434337218549       -0.00405733147309
C            1.17346083773151        0.85269917442857       -0.00025051527633
C            0.68210959507686        2.14851642896392       -0.00753061113297
C           -0.59497770986611        2.71704225226030       -0.00684164241981
N           -1.82744164047903        2.28114565498214       -0.00030803630094
C           -2.38117319611652        1.08995979623254        0.00934771185165
C           -3.77022303413878        1.00017190324714        0.01045649729395
C           -4.16669915723467       -0.35186281984067        0.01922928566969
N           -5.43543670711745       -0.79670134025299        0.03763997546011
C           -3.01389517679899       -1.15447055052780        0.02668380266055
C           -1.87642076496999       -0.34684559809013        0.01958261100049
N           -0.70088382803281       -0.91807249455966        0.02032918726159
C            0.53036919476981       -0.48409787510291        0.01210547831245
C            1.57934323960467       -1.44025464526357        0.01450691304568
C            1.43730811110893       -2.82756852561108        0.02451127428870
N            1.39490877386191       -3.97689234150249        0.03241623860171
C            2.82567327603090       -0.77684542037403        0.00462398262648
N            4.03413857786773       -1.35986734409427        0.00299897210036
H            1.47128650763768        2.89518636974588       -0.01579937340744
H           -0.57674073593524        3.80699951125076       -0.01401983026614
H           -4.42939708946223        1.84776986695102        0.00437389698636
H           -5.62545480625374       -1.78149782912234       -0.01554573971679
H           -6.20017248185065       -0.14921606758797       -0.02973831966834
H           -2.98849749835038       -2.22769732949234        0.03489202853977
H            4.10891086744100       -2.36207398062511        0.01169734168498
H            4.86740902133579       -0.79791371568717       -0.00246467187528
