31
 energy: -60.217295614995 gnorm: 0.000526022793 xtb: 6.6.1 (8d0f1dd)
N           -5.08743709642690       -2.20111348066723       -0.27153094177823
C           -4.15965537441995       -1.52703779838331       -0.18818000701114
C           -3.06112550908099       -0.67108685289657       -0.09411126941820
C           -1.71054179313064       -1.05299098697857        0.07865379297377
C           -1.42429329968602       -2.40492667894169        0.25509515482872
C           -0.28149062537430       -3.17329724668401        0.38906292610074
C            1.07686520706810       -2.91415640168040        0.31568448465508
C            1.85723533709618       -1.78048549194026        0.13833800132710
N            3.17795732931578       -2.01046369314459        0.00312894278264
C            3.79671162252456       -0.83791722393870       -0.11047039272322
N            5.11303415440341       -0.72642822250677       -0.30202024990674
C            2.86949152642678        0.24908109250971        0.00136759800082
C            3.29289181386328        1.56923808819801       -0.15058541473077
N            3.78820289791293        2.59022151581135       -0.33619394551168
C            1.59769092164768       -0.32914100563650        0.14494846685731
C            0.43368245882020        0.44882207062901        0.30558851069824
C            0.72685108749912        1.77537072196035        0.73165853482589
N            0.97817948448463        2.77514511597629        1.23443653930184
C           -0.92890722292114        0.19172578381036        0.13457912735383
C           -1.85470150618986        1.25848019718348       -0.00055099414727
C           -1.64306256583540        2.63690358091874       -0.11353836957879
N           -1.64339711632986        3.77502645106276       -0.27480200908520
C           -3.15923440794861        0.73917143150776       -0.16580685762317
N           -4.27502619542036        1.45253128466157       -0.35538994401627
H           -2.33436173033108       -2.99906920615911        0.26987851380575
H           -0.50061321577999       -4.22562669513358        0.53121755657754
H            1.70579410452157       -3.79610971463728        0.36554024528166
H            5.66937654130640       -1.55940313769715       -0.37756007406502
H            5.54029476897657        0.18070670554705       -0.37363007823253
H           -4.22617320225533        2.45682384572282       -0.39587603075485
H           -5.15904387007749        0.99158921712044       -0.48530110218104
