24
 energy: -43.747992593781 gnorm: 0.000820619836 xtb: 6.6.1 (8d0f1dd)
N           -0.54230142921545       -3.59809054845832        1.02218115626880
C           -0.42028759653818       -2.50681682139142        0.69522599233425
C           -0.19119622023272       -1.14560980411194        0.33804879546091
C            1.14765664374963       -0.82512804493386        0.11463878709339
C            2.18288010800641       -1.75652154708264       -0.00039097801034
C            3.26998511169921       -1.07163749768340       -0.55222733273196
N            3.03905625615043        0.22389999369647       -0.73627700010343
C            1.79124911448216        0.46825338573243       -0.29477629196906
N            1.43252082643005        1.69628794528471       -0.11306064178502
C            0.37802306081370        2.40425025472818        0.18020052067482
N            0.65326532089214        3.61628849933954        0.72624756325728
C           -0.97954672074111        2.14684820469186       -0.15535976629819
C           -1.68281700621834        0.97442286060282       -0.25611127523870
C           -3.07736314693466        0.94760104561062       -0.51299740829502
C           -3.50825864971213       -0.33652499002958       -0.25788908696683
N           -2.50767597360136       -1.14624270746355        0.12317732582289
C           -1.37556047113441       -0.43579769369525        0.10927628993458
H            2.13736805518759       -2.80066673813869        0.23894573694664
H            4.22441690912989       -1.48865788417808       -0.82127031332861
H            1.61836297632822        3.87400865451463        0.83716525375159
H           -0.06092953122383        4.31251021855871        0.83711275237164
H           -1.56575362172169        3.04440829681317       -0.32755846915986
H           -3.67597190630044        1.78549169742353       -0.81239315280376
H           -4.50690465029551       -0.72673467702930       -0.33508251332600
