29
 energy: -50.376397730222 gnorm: 0.000787147336 xtb: 6.6.1 (8d0f1dd)
N           -4.77264959629286       -1.38287557927455        0.44215498806447
C           -3.85760080040422       -0.69627489948461        0.30100255835022
C           -2.77533140343270        0.15410914025860        0.13105367339599
C           -1.40264404641436       -0.19137905949262        0.04012027281383
C           -0.99399089866983       -1.50969771167932        0.03803328540030
C            0.24776725191978       -2.15990221691197       -0.07863507357344
N            0.17128422601405       -3.52616562341616       -0.19997679105616
N            1.50199554260860       -1.76644383553330        0.01644084213959
C            2.16695306297728       -0.64770849768147        0.05456059284079
C            3.55652427656783       -0.69311194289853        0.23025497813286
C            4.08378500746837        0.59286385901742        0.10854231065537
N            5.39182696841371        0.93128587341358        0.16285401179699
C            3.02037746789743        1.49113482672488       -0.13374796297721
C            1.81362218423319        0.80443901699088       -0.14301100127423
C            0.60529075119578        1.47776504154627       -0.23156606731532
C           -0.72328349658233        1.10403713472175       -0.13139707700658
N           -1.63188459382352        2.10310474254115       -0.16179255331411
C           -2.84327951243519        1.56365321359093       -0.00559407376028
N           -3.96328853801531        2.31043670219651       -0.02450533786938
H           -1.82373551760266       -2.20740231666106        0.11946635073980
H            1.03386812061429       -4.01215510341882       -0.37039316395973
H           -0.69195246116646       -3.97010770475279       -0.45627035344942
H            4.11405140133501       -1.59302643819146        0.40409268401798
H            5.65007461843210        1.90175680415239        0.18931302995509
H            6.06213799579193        0.25609066331818        0.48481011206557
H            3.13099324081922        2.55240882031648       -0.26642043005246
H            0.70535976071920        2.55344314604524       -0.34193904687153
H           -4.84236453554326        1.89626146317312        0.22886271329579
H           -3.86750157252342        3.30997066418624       -0.02420081988265
