27
 energy: -47.732660319110 gnorm: 0.000872543575 xtb: 6.6.1 (8d0f1dd)
N            4.63753857579648        1.70549308182662       -0.01746958480106
C            3.67499219018344        1.07474927688502       -0.00879720203490
C            2.53800722236117        0.27460733864170       -0.00064970005225
C            1.18672016309515        0.67847031457990        0.00015878050400
C            0.85473172685167        2.03902812052069       -0.00299733040535
C           -0.31876395644400        2.75137332841851       -0.00219782085034
C           -1.67690921613848        2.41116565085402       -0.00079746760695
C           -2.41909071646784        1.25178225358471        0.00049751309521
C           -3.83358195955545        1.34238134355723       -0.00062057691195
C           -4.38458465635631        0.07740010459547        0.00086218664000
C           -3.34858837115042       -0.85974359796965        0.00325227546359
C           -2.11318270642596       -0.20023838407529        0.00309528022700
C           -0.91500506748236       -0.91990259960441        0.00624404666492
C           -1.07421927987494       -2.33916756704086        0.00984480869835
N           -1.22565764245566       -3.47517857325757        0.01212320069584
C            0.44161427080349       -0.57735150909514        0.00594986272169
N            1.29717196634070       -1.62588477909158        0.00913883068369
C            2.53872205695325       -1.15414617440097        0.00559741235325
N            3.61278053743474       -1.95385600738882        0.01642879264948
H            1.74363022584425        2.66472058595308       -0.00602699413379
H           -0.16118235706553        3.82446335831852       -0.00374479677481
H           -2.31403388293470        3.29170531472974       -0.00173758101630
H           -4.37835857339041        2.26865618801654       -0.00254528930723
H           -5.43348128373104       -0.15613789732723        0.00038722816783
H           -3.47586523468489       -1.92607178507635        0.00491268908901
H            4.54032644647824       -1.57085204027724       -0.02028572412699
H            3.47185454951544       -2.94810150367667       -0.00460919503200
