28
 energy: -51.442973284070 gnorm: 0.000355282629 xtb: 6.6.1 (8d0f1dd)
N           -3.59517363905839        2.60198633939746       -0.00797446923808
C           -2.58816704976852        2.04651507836573        0.01152840304586
C           -1.33740517219366        1.39512661727283        0.04685989895567
C           -1.39302503129605        0.00143392726399       -0.15510525307289
C           -2.57798934031177       -0.66821663854492       -0.43245143794690
C           -2.31498300493267       -2.04622041310095       -0.27453184239023
N           -3.16844359498994       -3.06517538557010       -0.44868977905903
N           -1.04154933274717       -2.26754853037929        0.08082379091497
C           -0.41520745651429       -1.07881995949156        0.12559997974073
C            0.96145307812859       -1.12423395862575        0.35024726994793
C            1.41054977064900       -2.43204778693959        0.69082780698427
N            1.80652861890224       -3.45909262762669        1.01054189278653
C            1.98642600947001       -0.19637279368254        0.11570124937894
C            3.32467858162333       -0.53633852312139        0.00186702103913
C            4.03337072801426        0.54049334299940       -0.58038431658235
C            3.17925872372079        1.58699203757305       -0.81389693549968
C            1.89072195946976        1.23530330257661       -0.31567433201258
N            0.99600916057099        2.13718325535174       -0.11645673284327
C           -0.24272568344468        2.25399961989192        0.31030038388717
N           -0.49821438144044        3.44186335323348        0.92518440804958
H           -3.52336323243691       -0.22833843982576       -0.68254424510233
H           -4.12930034985763       -2.89881328935518       -0.68357040751619
H           -2.84702192792026       -3.99606509201620       -0.25190367606670
H            3.74967701848718       -1.48721902413793        0.26379407991152
H            5.08521834413100        0.52480633577414       -0.80308101610300
H            3.42091210409798        2.55003449563014       -1.21910774270706
H           -1.44899546630895        3.73848166746232        1.06726188345572
H            0.22801129885636        4.13753686712534        0.91192749634263
