31
 energy: -60.200320627391 gnorm: 0.000723683780 xtb: 6.6.1 (8d0f1dd)
N           -4.83038798669420        0.29203587718965        1.03957683154691
C           -3.75321867428109        0.15970905848525        0.66455332350333
C           -2.40346315869977        0.05436768689393        0.22741556417229
C           -1.89074676729110       -1.23684082714167        0.32230222997941
C           -2.72638615260863       -2.31249466837690        0.68621413256205
C           -2.10478623155766       -3.51143493370117        0.36441994540539
C           -0.85108852741852       -3.24478242253904       -0.17279462718001
C           -0.62177356711107       -1.85608524635957       -0.14718302844682
C            0.65699890741571       -1.34455937981606       -0.31981342226228
C            1.60824492562330       -2.28490625519862       -0.80941851670317
N            2.34826522241024       -3.01396217136676       -1.29361170760336
C            1.21741648635428       -0.09013993875770       -0.01025932455224
C            2.59152500615173        0.10431550342490        0.22112065049457
C            3.63481272500308       -0.80498254488928        0.37566635795702
N            4.56314554480316       -1.45656980067488        0.56686219721040
C            2.76765941065425        1.51316788079287        0.41747072148761
N            3.91133633914125        2.13150953190464        0.71774854917184
N            1.61696470387189        2.16398181279050        0.25920668175599
C            0.65035788170217        1.25722466108647        0.02691165571583
C           -0.60632726305735        1.79174976865315       -0.29199454739980
C           -0.49887387451339        3.18603070272804       -0.55893994053575
N           -0.46424407792653        4.30489600705534       -0.81111032570564
C           -1.92258901678865        1.29383710599391       -0.29885303353318
N           -2.88173742925474        2.14125437710874       -0.75773244195869
H           -3.71687027157188       -2.21324564250215        1.08769479999400
H           -2.52562884287462       -4.48928547957346        0.50846251043424
H           -0.13091045345860       -3.97812512397976       -0.48228783154237
H            3.90898929567432        3.13089202607158        0.82229657161088
H            4.76430231365701        1.60833958850260        0.81232584159945
H           -3.85533219075689        1.91293524016528       -0.64587826585843
H           -2.63841872570987        3.09430301311964       -0.97442880672540
