26
 energy: -47.209909786395 gnorm: 0.000974568572 xtb: 6.6.1 (8d0f1dd)
N           -4.25299302261037       -1.67397964937254        0.80157925064787
C           -3.41757492261393       -0.92260705057379        0.54946045070384
C           -2.42908843956081        0.00137069713058        0.23721358872950
C           -1.04148293661628       -0.23818100505918        0.07267432057940
C           -0.52716926585185       -1.51625391317420        0.05127129205311
C            0.78022716055362       -2.01222703055454       -0.14966757080012
N            0.88290781131611       -3.29489226003930       -0.59070108493194
N            1.93493106605113       -1.47552760220118        0.16312945306431
C            2.48207185873794       -0.31377570242779        0.27280251644104
N            3.75272364767268       -0.24893190032207        0.72423158969290
C            4.18323717154297        0.98386127990284        0.48845853569016
C            3.21740654747161        1.80994806381539       -0.09473728851418
C            2.04960469166436        1.05135382579515       -0.19244962617926
C            0.79703228915801        1.58514943541153       -0.43367457216829
C           -0.48926140768790        1.09566669593476       -0.25647494398938
N           -1.48498417461880        1.99620690940289       -0.33284399698539
C           -2.63431581082866        1.37766227630117       -0.03041090864461
N           -3.80290827490661        2.03291531586660       -0.00551379386584
H           -1.27626921704891       -2.29354034442350        0.17493383323752
H            0.07039695724010       -3.88152484221195       -0.65870921807921
H            1.79425421102854       -3.71949482760201       -0.57252483603947
H            5.19228434461260        1.25544474087451        0.74678226274750
H            3.33740785112081        2.84050153785705       -0.36692828066680
H            0.79269322361119        2.64493695245507       -0.67010085800580
H           -3.81350762283705        3.01385037677907       -0.21849909975508
H           -4.65043550410032        1.55451220283495        0.23925340063847
