26
 energy: -47.991150662089 gnorm: 0.000703312543 xtb: 6.6.1 (8d0f1dd)
N            4.30828838982306       -0.68671084984403        0.77908133353379
C            3.20773167591370       -0.51692707128339        0.49910879536723
C            1.84905495970726       -0.38497452088097        0.12381645301234
C            1.27431370874150        0.85371804309369        0.26402121254479
C            2.07351780204552        1.98335356501388        0.63674727084583
C            1.38302723713410        3.12884658314619        0.35199149405891
C            0.10189922915014        2.78498905599718       -0.13565339550402
C           -0.03860257077187        1.40379168894042       -0.15902117298162
C           -1.29807002241812        0.79607576973972       -0.34883389978464
C           -2.35131348953272        1.69616603539120       -0.68612083593978
N           -3.17394907310492        2.42516358989262       -1.00824090963154
C           -1.75524539572616       -0.48429612768856       -0.08051336535233
N           -3.08279548344480       -0.67405672248604        0.09083138678366
C           -3.24178850136529       -1.88839023394177        0.60232502368593
C           -2.04262866066104       -2.59903730681847        0.71273521590627
C           -1.04425329024839       -1.75208870551414        0.22935937405955
N            0.15821897756257       -2.15437034806743       -0.11547236490046
C            1.30002505027973       -1.63282875670348       -0.39710087256569
N            2.14451139957480       -2.39085320693709       -1.14035781335994
H            3.07915060495457        1.91253659813257        1.00634105069301
H            1.73983700992446        4.13342600362623        0.48393270322014
H           -0.66630042767319        3.48742585457298       -0.39955087908362
H           -4.22560061741031       -2.23277236101739        0.86657687772517
H           -1.91300404145847       -3.60604579036215        1.05438806705936
H            1.84803949936579       -3.32282244659085       -1.37640985364477
H            3.12520717024039       -2.17188961361159       -1.18547958985430
