25
 energy: -43.475953835483 gnorm: 0.000588255729 xtb: 6.6.1 (8d0f1dd)
N            0.16931123171237       -3.39222472718000        0.55854159724096
C            0.02833604471334       -2.26489887123259        0.40536647354036
C           -0.19467155307581       -0.86459575141613        0.26120620848505
C           -1.54474645365771       -0.49297196818071        0.18323639982792
C           -2.57717391021443       -1.41843506828579        0.12868292131467
C           -3.76967759253007       -0.77921340570265       -0.27420296019317
C           -3.52924291264943        0.55607906694159       -0.46275408623008
C           -2.17211841352185        0.83896404753070       -0.11705174088882
N           -1.80427806513429        2.06419404126628        0.01960946026795
C           -0.71319028863191        2.72557166400736        0.34656120169465
C            0.63209585589193        2.44693055641845        0.24465760692775
C            1.35537925778551        1.26876372552557        0.00927208085781
C            2.73398805806953        1.26885568665158       -0.16741221770851
C            3.14871749315558       -0.08268725503871       -0.18022464376960
N            4.39307227787140       -0.55501012089699       -0.36591291418797
N            2.11571548825849       -0.91117786734634        0.00121053726004
C            0.99915676303258       -0.16212287820702        0.09697817826851
H           -2.48035369334645       -2.46890605482001        0.33334996949097
H           -4.71224565102500       -1.27857828748276       -0.40918781894082
H           -4.23264636898800        1.31314681095141       -0.75005654303957
H           -0.95228777511697        3.75162659536232        0.62337372678746
H            1.27081088393512        3.31756882336788        0.35399244988094
H            3.36917653614475        2.12761924565571       -0.26913378960580
H            4.53973121200750       -1.54420501311265       -0.27005363074418
H            5.17967687151407        0.06670527862337       -0.38995854873666
