28
 energy: -56.242490579272 gnorm: 0.000472718325 xtb: 6.6.1 (8d0f1dd)
N           -3.71172622706916        2.92368242378509        0.87206486815370
C           -2.91665823280925        2.16125335172172        0.54737600870008
C           -1.90984938702002        1.26498772136061        0.12228567457656
C           -2.15916607218165       -0.07940531539335        0.27915106132458
C           -3.41649564271635       -0.57884044597004        0.71543995403219
C           -3.42876040101751       -1.91998658105332        0.42199783798076
N           -2.26208775351531       -2.34656099577598       -0.11116719724856
C           -1.43873413477659       -1.31088415879203       -0.18349759987708
C           -0.09628885206042       -1.58502214169752       -0.49354220241930
C            0.14925512758603       -2.94955871437136       -0.82214716477691
N            0.36718007261703       -4.02976669430843       -1.13206446792311
C            1.06100203052524       -0.82979104435272       -0.31905401279012
N            2.24360009342157       -1.45062857521247       -0.24797959147658
C            3.14980272823321       -0.55855386951792        0.17685212061857
N            4.41616709751131       -0.90497751469873        0.39818899465493
C            2.58481951015825        0.74479742705063        0.33279479199333
C            3.27969515752950        1.88846759527884        0.71487437471877
N            3.89064511847912        2.80793860029318        1.03621199482548
C            1.23963253178645        0.62500016853303       -0.04406769880830
N            0.47292655722061        1.64175646076765       -0.32928984120736
C           -0.77341547165872        1.92623299986372       -0.49899325968660
N           -1.04208241369132        3.03584189434216       -1.22072972264564
H           -4.21405889116054        0.00820471495372        1.12561680202649
H           -4.22687038523913       -2.62315659353763        0.57495215958680
H            5.08029468832782       -0.23448554880129        0.74460151359298
H            4.69280172134101       -1.85582731677075        0.22249798377458
H           -1.96422116972633        3.43790173893564       -1.22186431575543
H           -0.26617658029372        3.59354927396878       -1.53695721474406
