28
 energy: -50.662642348356 gnorm: 0.000378564717 xtb: 6.6.1 (8d0f1dd)
N           -4.67809109533082       -1.37711051200140        0.91675343226960
C           -3.79089496579061       -0.70017924931675        0.62881845910711
C           -2.74321700928553        0.13822951743965        0.27717290005898
C           -1.38773253842153       -0.20552046606124        0.07047309058017
C           -0.96706706147683       -1.51971778864018        0.04650775573511
C            0.28510194063904       -2.11627238984580       -0.19754236671052
N            0.26094891031164       -3.41475197542797       -0.61573962601047
N            1.50476329994507       -1.68053606378856        0.02689821457366
C            2.14619838553941       -0.56370920526205        0.10436447359290
N            3.43848637215983       -0.60720226347771        0.47341187487529
C            3.95450889588270        0.60205975698762        0.23474976371892
N            5.24232205650749        0.86941816043529        0.49896028708182
C            2.99543328711207        1.51264000444147       -0.28075344578999
C            1.78795772637641        0.83827373333260       -0.31505663227930
C            0.56015220232926        1.46461357915774       -0.51183894187369
C           -0.74515287342222        1.08142109777668       -0.28537401650240
N           -1.67686088568223        2.06024714358195       -0.33677750488126
C           -2.85093982283314        1.53007030822397        0.00655095084906
N           -3.97417071488889        2.26222328739901        0.06238493649750
H           -1.77159970860769       -2.23605635333433        0.18889933784619
H            1.13430288678355       -3.91326083000265       -0.61027840362079
H           -0.59606791792024       -3.93816088945593       -0.60092620791577
H            5.65433637039299        1.74010302326327        0.21809952040905
H            5.82419558818434        0.12384309222988        0.83708898766924
H            3.17601004934244        2.53861583356516       -0.53779986745699
H            0.63383247263880        2.52111289488638       -0.75114215085487
H           -4.83696740932382        1.84762649070820        0.36416919411807
H           -3.92335862126265        3.24491640878725       -0.13454830728693
