23
 energy: -44.037780271656 gnorm: 0.000658005510 xtb: 6.6.1 (8d0f1dd)
N           -0.13968747080073        3.60351796032142       -1.10477402730326
C           -0.08879139920786        2.51624084358784       -0.74779117144618
C           -0.05081951651453        1.14701057055165       -0.36344467306783
C           -1.30298704501678        0.55046347414855       -0.13503936191604
C           -2.48845634172483        1.25570684776562       -0.04818375170921
C           -3.47105175194951        0.45145462010922        0.58641673275069
C           -2.94488211745282       -0.77073279002922        0.90370142505973
C           -1.61901479875751       -0.83613868792497        0.37464192015585
N           -1.03554975039493       -1.95937862892696        0.17523651605812
C            0.15129516678129       -2.29364107276329       -0.34291636814196
N            0.14784398353237       -3.34737773030247       -1.18372230593837
N            1.31091983785119       -1.85149453339967        0.06154979602151
C            1.75006762983957       -0.66139129914948        0.35652367729522
N            2.96907423372368       -0.46658242326733        0.86863300979637
C            3.20362791556232        0.83474238356663        0.70100804503629
N            2.23742154011606        1.55321973848471        0.13855472392395
C            1.22500169033314        0.68620684259979       -0.05190777789794
H           -2.62969167352251        2.27714879999247       -0.34940487392449
H           -4.47473722597762        0.77702322947532        0.79266713006058
H           -3.44524263541817       -1.60268948094184        1.35837256962317
H           -0.70226906905680       -3.86790637249181       -1.31208928822862
H            1.02933486142855       -3.77369018811869       -1.41290112785182
H            4.13200252892621        1.28275544391280        1.00417662194437
