26
 energy: -47.206943234643 gnorm: 0.000669044057 xtb: 6.6.1 (8d0f1dd)
N           -3.86653767612566        2.00193190490180        0.71449486914751
C           -2.89550020394987        1.43747255849608        0.46608756082190
C           -1.68314204195859        0.78780275905234        0.15297765869487
C           -1.72049219876682       -0.60931155103754        0.18482914390099
C           -2.88047518635541       -1.33459887973717        0.48064223549766
C           -2.62585314960546       -2.65752930448422        0.12552710189565
N           -1.40064522167691       -2.83800087275312       -0.35360915946003
C           -0.76437582221157       -1.64378999062558       -0.30498050014451
C            0.58134503895269       -1.66181238254195       -0.58660740586528
C            1.61043493114508       -0.75046119192717       -0.34309880877317
C            2.95129014202424       -1.08144032882957       -0.29465087109582
C            3.62035365800635        0.03339262487950        0.28886881768660
N            4.92554480325539        0.10917159869485        0.57881565569791
N            2.79274060680564        1.04817700446888        0.54814407970697
C            1.57153849049022        0.67038822621069        0.13115711028590
N            0.64826016174243        1.56535806103336        0.02220623337022
C           -0.62841921888345        1.67996645700576       -0.21890063974475
N           -0.98939577360745        2.87251757246905       -0.76035737029695
H           -3.79904649568490       -0.93723167414947        0.86628568635020
H           -3.30190221464683       -3.49078253475247        0.20571307140421
H            0.91896013999646       -2.64725016493338       -0.89229596424989
H            3.40692004626350       -2.00876581852443       -0.58280671288865
H            5.55904924050814       -0.62101741831291        0.30992374920594
H            5.27772463923555        0.95869496353750        0.98307977030052
H           -0.27792246313559        3.58056829448489       -0.83348954169209
H           -1.95666399532457        3.14947834476445       -0.77267509736644
