27
 energy: -50.943750304256 gnorm: 0.000777582313 xtb: 6.6.1 (8d0f1dd)
N            0.15772418224005       -3.49371026829366       -1.19700803994462
C            0.14109491972107       -2.40166631574638       -0.84415499229934
C            0.06139416142659       -1.03942131406860       -0.45353518563478
C           -1.24545365650323       -0.56756196685380       -0.26272451230774
C           -2.37398795995431       -1.36447467115087       -0.24295477901369
C           -3.41738519341491       -0.56803989097248        0.29639037471044
N           -4.66810542705930       -0.96953537219289        0.55028688414246
N           -3.03035858722996        0.68888325244343        0.55366840437720
C           -1.74972437478933        0.78797657293498        0.17143321869992
N           -1.22995189189530        1.96272435777202        0.06177005625526
C           -0.07832412205000        2.54533498853372       -0.16178068534810
N           -0.19761728145195        3.79807410432899       -0.67504542749551
C            1.22399342234050        2.12865407346310        0.18668879713748
C            1.78277314852962        0.87444890893055        0.25383094818521
N            3.09388126601031        0.75993350671092        0.53603394710831
C            3.39381182526667       -0.52139077474297        0.29525397245697
N            4.62419045401111       -1.01841795316413        0.44492509185437
N            2.37083329716336       -1.29147512304302       -0.12936047518070
C            1.30678330486332       -0.48498657086580       -0.14408995910914
H           -2.44762124569194       -2.39912739129215       -0.51456048907871
H           -5.31358422722969       -0.31322354639041        0.95246627682443
H           -4.96773982961082       -1.89713980607340        0.31197212447715
H            0.59861476321022        4.40665731294869       -0.72993220978925
H           -1.12234014612147        4.17453020550589       -0.79220545866335
H            1.93854702411456        2.92480430866443        0.35817873714208
H            5.35182379665932       -0.43224545652004        0.80936585352224
H            4.77637122924632       -1.99362786506312        0.26487675857074
