26
 energy: -47.200541004553 gnorm: 0.000884664093 xtb: 6.6.1 (8d0f1dd)
N            0.00614546975976       -3.33503689576271        0.03579419187192
C            0.01152009245158       -2.18928795901694        0.03095533343211
C            0.01306382764837       -0.76403247433954        0.02621358173916
C            1.29996990121979       -0.21605434208323        0.01185576284097
N            2.31711047724696       -1.07636974930920        0.00658757325461
C            3.46252213464551       -0.36038325863475       -0.01382978550572
N            4.64722805062459       -0.98845678740419       -0.01222012128089
C            3.20695071028566        1.01795446196302       -0.02234903317439
C            1.81853556734715        1.17779842549783       -0.00429914887725
C            1.22438215720403        2.43371113323782        0.01335245668143
C           -0.08385708174726        2.91555678223657        0.03818427619449
N           -1.28778106881222        2.41183642309158        0.01699125215985
C           -1.79615662210101        1.19989435392516       -0.00203827454541
C           -3.18221835255709        1.03748173091364       -0.03488767788491
C           -3.43480261572627       -0.34218691842359       -0.01799865064285
N           -4.62008114442032       -0.96624510232900       -0.02954740376443
N           -2.29261400668174       -1.06181246301737        0.01700369813241
C           -1.26743558601322       -0.20857694285418        0.02130633328505
H            4.65107633429150       -1.99274402592507       -0.03334956324585
H            5.50846170593052       -0.47786287070090       -0.07013362155059
H            3.93939200143416        1.80135804114038       -0.03740263034453
H            1.96017294925814        3.23279490166799        0.01255395154082
H           -0.13434096455483        4.00537383321912        0.07145812750072
H           -3.90424225079367        1.82793937610327       -0.05951841024278
H           -4.63170213540214       -1.97084586312678       -0.01432912902471
H           -5.47889279403797       -0.44923019636893       -0.06220191914921
