29
 energy: -55.983043458062 gnorm: 0.000470459551 xtb: 6.6.1 (8d0f1dd)
N           -5.07060948933170        2.32149573947000       -0.00252491029569
C           -4.22104295344213        1.54568823514434       -0.00075736480511
C           -3.22467821401149        0.57497866227378       -0.00034221456804
C           -1.82449449499935        0.76155175229659       -0.00074805851799
C           -1.28029593566492        2.04083066995667       -0.00211079965460
C            0.00001903603360        2.56999018889919       -0.00277322089139
C            1.28033176047516        2.04082257833083       -0.00214038144232
C            1.82452326384048        0.76154149647602       -0.00054506423635
C            3.22471264665328        0.57496579589994       -0.00039882788542
C            4.22108597766906        1.54567777306906       -0.00234221566910
N            5.07069999697812        2.32153109319535       -0.00053665840967
C            3.45094769042041       -0.83024137297882        0.00139931962600
N            4.62942643890459       -1.45677586752398        0.00226724768598
N            2.29377348666415       -1.50121551112533        0.00200045678230
C            1.28919279241990       -0.61379885781738        0.00084491207194
C            0.00001358099866       -1.15444439037679        0.00110994158932
C            0.00001144727822       -2.58115043818820        0.00233519659411
N            0.00001426744526       -3.72635526035697        0.00324560464230
C           -1.28916405883501       -0.61379658193251        0.00053283823798
N           -2.29374546669398       -1.50120666949056        0.00136470410070
C           -3.45092028866600       -0.83023359712606        0.00087565743801
N           -4.62939424489737       -1.45676452808853        0.00160713445821
H           -2.05486329702527        2.80361716283655       -0.00287671320220
H            0.00002341740441        3.65455032467325       -0.00401821724298
H            2.05490395218899        2.80360390133405       -0.00299389411172
H            4.63935707756275       -2.46176577538934        0.00334866092582
H            5.48978118833677       -0.93795645296804        0.00171440812229
H           -5.48975025678119       -0.93794520518868        0.00116790645807
H           -4.63932710762544       -2.46175605380450        0.00244853779957
