34
 energy: -68.167245993233 gnorm: 0.000487213669 xtb: 6.6.1 (8d0f1dd)
N            3.52237788198663        3.38773589891175        1.28662987978872
C            3.21511031310556        2.36465105327463        0.86155666754842
C            2.94287757047929        1.09566531708713        0.35342758226173
C            3.93610603636483        0.21679614092614       -0.16561577613406
N            5.24479230100803        0.48984226986634       -0.21692134483827
C            3.30541237761449       -0.95839091528125       -0.59616291607410
C            1.94062576399900       -0.89837641793072       -0.30346777439287
C            1.12929403560108       -2.03584188900109       -0.30217083838642
C            1.80311049414637       -3.18837992835037       -0.78463303233609
N            2.32890963970140       -4.11512629046433       -1.21397832791991
C           -0.15759492526159       -2.33487981038366        0.24254391324981
N           -0.32829549948271       -3.63936133542532        0.58438394411887
C           -1.29305520563767       -1.50597295447807        0.41047097473468
C           -2.42471979772057       -2.20034732749444        0.91477989601800
N           -3.28198643338571       -2.77865620359308        1.41477302090089
C           -1.56316170446264       -0.15806011613042        0.11903034216343
C           -2.87144706172792        0.32342199867923       -0.06846408796073
C           -4.07448754804388       -0.37771684554310       -0.18945431225136
N           -5.11200896780759       -0.83903996168309       -0.37127886607230
C           -2.83800538595625        1.73329056627453       -0.27054399280173
N           -3.89550711784757        2.50675155179922       -0.52569657677600
C           -1.49599672730359        2.15621658493047       -0.15627239117841
C           -1.08067464778954        3.48191548262527       -0.29394528227414
N           -0.81184278139736        4.59081998985634       -0.42916135910211
C           -0.67231975835337        1.02781136157225        0.06583570581162
N            0.60144116540779        1.20937918404759        0.27119380408412
C            1.67769751971437        0.49298985704401        0.19011125381573
H            5.88511243512479       -0.15270378660762       -0.64894336838763
H            5.58846143174841        1.36734321589201        0.13519964155130
H            3.81733252214279       -1.80115987800460       -1.02193330582827
H           -1.23644576365046       -3.98122534124087        0.85173852121280
H            0.40424480884024       -4.30794775993881        0.41641617725525
H           -3.77660475884930        3.49706029828742       -0.65846407533854
H           -4.81585489110737        2.10217911138145       -0.57912388936438
