31
 energy: -55.402188314430 gnorm: 0.000916113285 xtb: 6.6.1 (8d0f1dd)
N            2.29597540377453       -3.40125149713230        1.11800972790754
C            1.90510611310125       -2.39963237241463        0.71818907030107
C            1.40472711122816       -1.13930711059083        0.28399114730409
C            2.41208624354088       -0.20498427859425        0.01137609564734
C            3.76191113299837       -0.56957463158216       -0.00264173103185
C            4.52503080150331        0.47408437883927       -0.54407858567616
C            3.68883684024152        1.52038339941038       -0.85386133233215
C            2.35509610512797        1.18899288163510       -0.47780611590905
C            1.40374656912453        2.17173461481829       -0.45641501732045
C            0.08318245711302        2.30367921872300        0.03556587970148
N           -0.29068641327827        3.60356394141819        0.24124955982511
C           -0.90840370353341        1.32721016218503        0.21522622491734
C           -2.13232641015004        1.84399465325451        0.71414277714905
N           -3.05227523203078        2.29900501173459        1.23124486979801
C           -0.96924353680143       -0.06411757532819       -0.03891521669500
C           -2.20981528793657       -0.69017324897607       -0.24695702829840
C           -3.44645653662459       -0.11452234097846       -0.54119151130822
N           -4.49410174095101        0.24525592402397       -0.85240026058160
C           -2.03021957361016       -2.10880193543397       -0.24623672138273
N           -3.00684082828894       -3.00446975922179       -0.48000196018489
C           -0.68742579216597       -2.35887370475047        0.00615341612368
C            0.01770634931114       -1.14145988245043        0.08674807401777
H            4.14836816378210       -1.52205588497232        0.30838226014213
H            5.58931125901476        0.44892046583369       -0.69121822027713
H            3.98100593893389        2.46927135672555       -1.26423626298052
H            1.78965006756807        3.12626616675113       -0.80737238529540
H           -1.20002000369173        3.81492857333909        0.61385778105819
H            0.40294468300895        4.32904339680433        0.24052621982009
H           -3.95145972812147       -2.69003933536897       -0.61799451465181
H           -2.81988266558372       -3.98834401309620       -0.41426798821100
H           -0.24275963280315       -3.33358425570861        0.07238458272517
