23
 energy: -44.043818196190 gnorm: 0.000734994639 xtb: 6.6.1 (8d0f1dd)
N            0.01375029028401       -3.44746090910232       -0.86045298227919
C           -0.09625139898943       -2.32485269398117       -0.65698270317337
C           -0.25308263641093       -0.92559888852877       -0.46397588616264
C           -1.56443407478814       -0.49814378077684       -0.21424956879491
C           -2.62906631192568       -1.35002192056108        0.02337226708114
C           -3.66014010154579       -0.63699707936212        0.67940206784802
C           -3.29448918234232        0.67385408980446        0.85840683222183
C           -2.04486243451915        0.87759304216104        0.21074671838510
N           -1.63468869433371        2.03643061419033       -0.15307692994291
C           -0.56751793853522        2.48470786617148       -0.78158078774871
N            0.67450645459684        2.24760609735610       -0.52935940499163
C            1.30452754606160        1.19429276206442       -0.07934951862213
N            2.55107304349900        1.24743575263821        0.37213396965347
C            2.98491333575196       -0.02950968709068        0.33826419462509
N            4.21693548750153       -0.36967731978557        0.70552401122486
N            2.09070909993713       -0.94405588400965       -0.08689857046804
C            0.96499230254223       -0.25673249696802       -0.29346913093984
H           -2.64783868110763       -2.40114312993897       -0.19647321813921
H           -4.58900728420653       -1.07586477381242        0.99743093196679
H           -3.87835188117803        1.46120593327652        1.29270201525003
H           -0.75967419105035        3.31429176393307       -1.45836332110570
H            4.85227831784917        0.34502943566649        1.01187911439381
H            4.51207221070858       -1.32397718844433        0.60192049221760
