25
 energy: -43.483457575154 gnorm: 0.000895874305 xtb: 6.6.1 (8d0f1dd)
N            0.15157537293791        3.47469886858259        0.02131827803165
C            0.25139270790815        2.33300899693318        0.01832458726134
C            0.30473791083528        0.90661739556253        0.01299359764713
C           -0.96663462600236        0.29417005477859        0.01367088663402
C           -2.14275939248872        1.03065927918217        0.01784062807007
C           -3.20844315051581        0.09772672639978        0.01337642898795
N           -4.52224045226007        0.37905463693093        0.04606694052984
N           -2.75864941857698       -1.15804040861210        0.00710117007457
C           -1.40743271550178       -1.11735437365771        0.00771198341932
C           -0.78284869782243       -2.34999133706847        0.00121289995959
C            0.53118924896245       -2.81407070388912       -0.00374634023713
C            1.77149015854759       -2.21550446882261       -0.00528598702578
C            2.23946868061323       -0.89842943615401       -0.00240783109663
C            3.60710853804517       -0.61457232152723       -0.00651516743644
C            3.74060923444194        0.77904516883890       -0.00153815749401
N            2.57176320832308        1.39205963653734        0.00531418112002
C            1.60545598308505        0.43533230011246        0.00591392236366
H           -2.23854131594964        2.09862068277721        0.02320675904037
H           -4.83996964513837        1.32279606308203       -0.08056839624599
H           -5.17435553731241       -0.37861213566026       -0.05313322078739
H           -1.52600503070169       -3.14077763458607        0.00043744660594
H            0.58497979554794       -3.89773958008876       -0.00704054617059
H            2.59291692666958       -2.92675944745400       -0.00961771171120
H            4.40466939231191       -1.33263289767160       -0.01256156867639
H            4.65306585834097        1.34804039127428       -0.00284186286391
