24
 energy: -48.557011891374 gnorm: 0.000791089303 xtb: 6.6.1 (8d0f1dd)
N           -0.28167979859549       -3.20975244898508        0.94577491742136
C           -0.02147605155524       -2.12648283528109        0.67609161716092
C            0.36526327779397       -0.78105207243029        0.42474921906884
C            1.72185581049734       -0.64509850807940        0.10930637651660
C            2.56651021179043       -1.69361210839836       -0.25124264708138
C            3.65949840185089       -1.11272096388057       -0.90929828564614
N            3.61990516026947        0.21469786978874       -0.94977671038354
C            2.52778867221439        0.58905036974515       -0.26755827236805
N            2.40295872638278        1.78096338200492        0.20336000206449
C            1.44535012838540        2.42217136423282        0.81028058434607
N            0.19347172075070        2.47307840564413        0.47046502751502
C           -0.67274062087521        1.61708981688044        0.03695013698683
N           -1.84969011755001        2.02190682074587       -0.45205679065845
C           -2.67822174853600        0.98114404406997       -0.40885478036380
N           -3.94787931222137        1.06087864787481       -0.79309186803929
C           -2.03409319672712       -0.21261805790087        0.08798411267310
C           -2.72424803795608       -1.41587316390271        0.21357186857777
N           -3.40887575825558       -2.33797218902460        0.27647974657893
C           -0.69477328617215        0.12992637636250        0.29087957032114
H            2.38699787142439       -2.74264479431026       -0.12056037277144
H            4.48191122668330       -1.63535591764191       -1.36521755524364
H            1.76237706397073        3.15135923132031        1.55112503235660
H           -4.29535160834364        1.93729119107061       -1.14334937712446
H           -4.55953495422426        0.26699436979725       -0.70350339670899
