29
 energy: -55.182107185271 gnorm: 0.000804760960 xtb: 6.6.1 (8d0f1dd)
N           -3.06616529557916       -3.27950039848353        0.66587898768794
C           -2.35235697141318       -2.41876154041482        0.39538117532870
C           -1.45057323403276       -1.38986453716683        0.05580642651991
C           -1.96924770035779       -0.09636005538709        0.10959286023343
C           -3.29757685955233        0.17318997423094        0.44266697633366
C           -3.52816478169572        1.51617876568062        0.12482725538737
N           -4.67064947122773        2.20593484291363        0.24099361364241
N           -2.41445141916593        2.12034312785317       -0.35854907415283
C           -1.43014364062480        1.22468237018632       -0.35210233061897
C           -0.15885903005133        1.70460702521398       -0.64824871576579
C            1.10676343571617        1.19380536245502       -0.44751305171719
N            2.15559888425092        2.03132366812428       -0.46510909553903
C            3.21123207429406        1.36924131567120        0.02970753379439
N            4.40028232319367        1.96072559334957        0.17966038981508
C            2.90328937566982        0.01495518826979        0.34592208653157
C            3.80535349992348       -0.91968369057535        0.84012097958170
N            4.58993396221189       -1.65422073770436        1.25225979191503
C            1.55887165725105       -0.16573552201027       -0.02582864279558
N            1.00603460429441       -1.33516522174823       -0.15664191524048
C           -0.16063414737992       -1.86851708252719       -0.36107942331914
N           -0.12205230318779       -3.10596395702025       -0.92042873936267
H           -4.01867380894508       -0.52445881898503        0.81985001847286
H           -5.49174236764942        1.78238159756300        0.63180658650316
H           -4.67899732086101        3.17141850161921       -0.03507768031404
H           -0.16363514798588        2.75639764286514       -0.91031994240549
H            5.17403108247728        1.45648967293084        0.57522118404998
H            4.50626045174374        2.91727373889817       -0.10803839791533
H            0.78259808948272       -3.53250884300931       -1.03276211227550
H           -0.93663869009702       -3.69590668029391       -0.89708838417350
