28
 energy: -51.453907934960 gnorm: 0.000665161452 xtb: 6.6.1 (8d0f1dd)
N           -2.01004883000679       -3.87071440117396       -0.70817603806400
C           -1.83005377086082       -2.75525242516597       -0.48955513496919
C           -1.66458211872562       -1.39718627157058       -0.22422528759171
C           -0.44046970734348       -0.68827406389941       -0.19476134187025
C            0.75797247872814       -1.37500239331126       -0.34886869985033
C            2.07789214080663       -1.03511151050200       -0.12279965969798
C            3.10831239560106       -1.97185835096214        0.02213700094900
C            4.18789646011635       -1.29023187337740        0.58375819141966
N            3.95994427125649        0.01006918140247        0.75703200434507
C            2.72348711370109        0.25663328945845        0.28948465528225
N            2.36346059729705        1.48546761203250        0.10872293668193
C            1.30101191512475        2.16781388041194       -0.22222428582033
N            1.57168784556531        3.39039304829932       -0.74707421415194
C           -0.06798101260790        1.88491840570872        0.03502370953346
C           -0.77926433556380        0.71298913617985        0.09938436993888
C           -2.19347919630264        0.75165624991653        0.30705181193543
C           -2.93565674461283        1.88929292569095        0.61514775246634
N           -3.56660896853012        2.81929331765181        0.86348186359082
C           -2.73849876579630       -0.52480196254219        0.09854072493904
N           -4.03236094408469       -0.87216288842270        0.18278859279412
H            0.61361410931257       -2.43407609009604       -0.55361992454888
H            3.05783617309123       -3.01855458154109       -0.20708573465490
H            5.13711196894494       -1.70781088047036        0.87086239524340
H            0.84886278160945        4.07930371380480       -0.85425779180271
H            2.53456500581532        3.67736400890580       -0.78951891583520
H           -0.67494002116747        2.77638020212499        0.16670720509420
H           -4.72401990376505       -0.18605506261042        0.42861668464084
H           -4.31480852950146       -1.81987568864078        0.00456505350339
