28
 energy: -51.448997575267 gnorm: 0.000977713368 xtb: 6.6.1 (8d0f1dd)
N           -4.97009672683420       -1.68550441549403       -0.00101803943656
C           -4.00657641677740       -1.05560406337448        0.00390295837128
C           -2.87051506492468       -0.25529330589978        0.00714014254429
C           -1.51795090119272       -0.65585872019598        0.00427773741271
C           -1.15974571288584       -2.00188321329116        0.00086301656192
C            0.04332500373647       -2.69200645434173       -0.00413309665840
N            1.31971496471825       -2.38550400279434       -0.00682024271072
C            2.03589417863700       -1.29696244552277       -0.00637890398873
C            3.43127013381075       -1.43508308637723       -0.01183395344836
C            4.03327856879733       -0.17546305236886       -0.01314665801545
N            5.35170724884353        0.08669700373594       -0.00652742535909
C            3.00975917761761        0.80270414040159       -0.00698173401410
C            1.76624951832615        0.19150904773213       -0.00303871708910
C            0.58210962608874        0.94133618726094        0.00245004644241
C            0.77574161914477        2.35335157934767        0.00419538697402
N            0.96891801514667        3.48342123254220        0.00423923691142
C           -0.77527538208885        0.61238596692931        0.00561619207063
N           -1.63146458928062        1.65382337689543        0.00917590960990
C           -2.87337204590882        1.17041632121485        0.01020952630600
N           -3.94753351314088        1.96850446942642        0.02297758536706
H           -2.02572159790837       -2.65796861363691        0.00177451646629
H           -0.08226215569776       -3.77524268017306       -0.00651911205272
H            3.93424585584315       -2.38236866838298       -0.01514844979020
H            5.68009428702478        1.03481931717200       -0.05079486818350
H            6.01857566954934       -0.66250991495425       -0.05335868348134
H            3.18337015109728        1.86347221604655       -0.00600195847998
H           -3.80761372006845        2.96291702812305       -0.00135846568516
H           -4.87428514727281        1.58298915968000       -0.01144390264340
