30
 energy: -55.679176674531 gnorm: 0.000799105366 xtb: 6.6.1 (8d0f1dd)
N            1.34210127403949        4.00714505611230        1.02445305693274
C            0.88651673702984        3.00987860323629        0.68858010429760
C            0.35849791773161        1.74068590960050        0.31423685909741
C           -1.01731445519789        1.70551544746760        0.17489081637289
C           -1.76938194027458        2.90317647048476        0.20374115476833
C           -3.05271847982758        2.64644235368949       -0.23952001098961
C           -3.17702198395630        1.28273638907987       -0.50473265828388
C           -1.97068854093596        0.62974137521060       -0.21197477127265
C           -1.92622413031466       -0.76851703811317       -0.13519846847468
C           -3.17188766867257       -1.37219507506092       -0.46263027104784
N           -4.15113217693989       -1.89761088349620       -0.75340963547943
C           -0.96322673615721       -1.73869661072398        0.25641393642739
N           -1.46932225922378       -2.93701168461688        0.66683108822428
C            0.44667033237457       -1.67094483650455        0.18039068606379
C            1.10225183818122       -2.93071132790304        0.29622311897592
N            1.57674394642432       -3.96882863217365        0.41798741016844
C            1.38542944939407       -0.66504099768568       -0.05510205357786
N            2.63938635933246       -1.09768631502760       -0.28479973055519
C            3.43642255919600       -0.02719041385781       -0.34904078920155
N            4.74482089491099       -0.14170832750615       -0.61158187242103
C            2.71133753525381        1.16792315367572       -0.11408213741772
C            1.38110250727243        0.80178182582435        0.05026259033865
H           -1.37197904383998        3.86613400596897        0.46293270019611
H           -3.83285114751404        3.37537213313155       -0.36000299018641
H           -4.07707969623864        0.80007238509210       -0.83511110720699
H           -0.85021951146913       -3.72486081639918        0.76445500372841
H           -2.45569101499307       -3.11906509340725        0.58703056720502
H            5.13026561725745       -1.06194172503320       -0.72796213421507
H            5.34471273671359        0.66211063626570       -0.60409686001583
H            3.11893681014246        2.15939872496540       -0.09726097545120
