25
 energy: -47.486183377887 gnorm: 0.000787014573 xtb: 6.6.1 (8d0f1dd)
N           -2.53309170014502        3.17277125028917        0.65108367412780
C           -1.76452271150961        2.34574541782453        0.43256700395499
C           -0.79623507581226        1.36121902887958        0.14461257285728
C           -1.25967822164470        0.04530006056141        0.13059746833217
C           -2.59254048130492       -0.28949999550419        0.37351599851312
C           -2.74837150092674       -1.62941219334937       -0.00261403236603
N           -3.86157849320611       -2.37104760625495        0.02359077601473
N           -1.58393487681347       -2.16631903532660       -0.44409276507747
C           -0.63966732979385       -1.23574000903634       -0.34692680823417
C            0.66687133729177       -1.65494545990041       -0.58059473276172
C            1.88115274839619       -1.09157809207281       -0.25621094048729
N            2.99621043743539       -1.83630642226732       -0.17909992390494
C            3.87490354081055       -1.07072728986613        0.46923860998939
N            3.48666364679707        0.15655865974002        0.79769843887812
C            2.24128388889977        0.25653198178871        0.30289756579090
N            1.65558657098670        1.40067950356224        0.17920212047100
C            0.50259619297683        1.89834777930701       -0.15471999135946
N            0.54807554582485        3.13573031915473       -0.70468336872198
H           -3.36157322565935        0.36448084243322        0.73384706725944
H           -4.71846258007876       -2.00592795199330        0.39698787767871
H           -3.80704645756404       -3.33019884309086       -0.27072213762176
H            0.72666942308291       -2.69295396861547       -0.88797717893617
H            4.85793166626188       -1.43152748216055        0.71371932562575
H           -0.28827545249850        3.68920555000986       -0.78555206757170
H            1.44296780729243        3.59455496908633       -0.74669285855318
