30
 energy: -50.878702940024 gnorm: 0.000357279336 xtb: 6.6.1 (8d0f1dd)
N            3.83022957330963        2.06636395132020        0.72659823982136
C            2.92018486854478        1.43161895246219        0.42760152073798
C            1.75812092477144        0.68077476476689        0.09891193875703
C            1.98101323537513       -0.69732162524538        0.13143002702698
C            3.26663558044054       -1.21404185592972        0.40250853890631
C            3.28747265358475       -2.57242399263961        0.12626717804412
C            2.02302940430754       -2.96054813514034       -0.30083529685347
C            1.15454126354137       -1.85382917989506       -0.26770658876898
C           -0.20290316589377       -2.03856787042574       -0.43654356278895
C           -1.33132841725694       -1.26611655632602       -0.20305267608853
C           -2.59079241563392       -1.87476398411679       -0.14424532808143
C           -3.55712139303897       -0.92444301140028        0.22156614882910
N           -4.86824485227868       -1.17229970349262        0.47262612304846
C           -2.91539330527800        0.31375763158878        0.33883166593006
C           -1.54957391195464        0.16672423797467        0.06526366744351
C           -0.72523307655020        1.29464973961871       -0.10026114707602
C           -1.48295920789104        2.49682814635115       -0.12170658175231
N           -2.08199583214722        3.47752012540426       -0.13944494818679
C            0.66181145566861        1.52591449190744       -0.23473385438066
N            1.01541961053432        2.78422028710273       -0.65383215911684
H            4.10754670700686       -0.63399590576378        0.73332520404669
H            4.14224584348293       -3.21639064067770        0.22671689048564
H            1.72666363873621       -3.95808593909329       -0.56889054876713
H           -0.45299359116059       -3.06624834848662       -0.68785639106651
H           -2.77832305123963       -2.91975531511291       -0.31076530483366
H           -5.49291549362312       -0.38863740270231        0.55296391152101
H           -5.26294902241326       -2.03991513559195        0.15336182701223
H           -3.40711271834858        1.23504973657576        0.58903978126986
H            1.97392301252246        3.07778141074209       -0.56520302686936
H            0.31723846888085        3.50914049252486       -0.67479056724967
