29
 energy: -55.177283705635 gnorm: 0.000864407343 xtb: 6.6.1 (8d0f1dd)
N           -3.60157861682250       -2.90990363909135        0.37151406668352
C           -2.66276413102465       -2.25815747242629        0.23648652323366
C           -1.49543291246145       -1.48915125790243        0.06338051614524
C           -1.67078250530190       -0.10056139968681        0.19548499521509
C           -2.88869631250851        0.47858355221894        0.51870713228740
C           -2.77006196780983        1.85875047773874        0.24764504092413
N           -3.71370039183853        2.79892815742206        0.38782819251825
N           -1.54992383574883        2.17481352207923       -0.21297861141613
C           -0.81466836801378        1.05215652430016       -0.21899808790557
C            0.53672794320645        1.20672024316161       -0.51188453503208
C            0.87088144416780        2.52127263024077       -0.93651203865562
N            1.19454694677055        3.55258843594273       -1.32035104864805
C            1.65587654585009        0.39233187568941       -0.24686260844817
C            2.95366645502232        0.84126405185603       -0.14416982245604
C            3.69983848646780       -0.22332123198603        0.44648160071383
N            4.99176886301836       -0.17753820152015        0.78779937251404
N            2.96287022418301       -1.31497271858182        0.65592830442203
C            1.72959321890415       -1.04321338149522        0.19235906656745
N            0.90310598009542       -2.01197837613384        0.01429743443912
C           -0.34535651091904       -2.24331856957827       -0.30007881087615
N           -0.54779745965258       -3.43507566505219       -0.92071919288967
H           -3.77048437918201       -0.02545578967628        0.86197964946319
H           -4.59347168574147        2.58365088451556        0.81991962321874
H           -3.47070775025827        3.75186472511363        0.18215723293984
H            3.33224584291829        1.81423684230774       -0.38867111651308
H            5.40979193506546       -0.99253725678033        1.20070892919458
H            5.55651274094754        0.61991356941038        0.55834529735476
H           -1.47692163530310       -3.81445217187960       -0.99083157119131
H            0.23860121817334       -4.05781198980419       -0.99212161890396
