25
 energy: -47.498577826310 gnorm: 0.000727483935 xtb: 6.6.1 (8d0f1dd)
N           -3.50893053043637        2.47120297367942        1.07072377026810
C           -2.90971202067465        1.55551119731777        0.71232639934342
C           -2.22357859156787        0.43175645278694        0.27208095158254
C           -0.84221180781353        0.18058347186060        0.28506918634780
C            0.11311933365039        1.15192024629681        0.55752302880517
C            1.44619920979774        1.23732970564803        0.19627006812101
C            2.16352523797913        2.43139629933233        0.09518537391891
C            3.29671807910501        2.15044236761650       -0.67459130072265
N            3.40053832024398        0.87456734036050       -1.03396067637571
C            2.36252274182861        0.23230652328703       -0.47026298618253
N            2.37249083441166       -1.05280954874302       -0.36732051235795
C            1.51312560640221       -1.92989218259462        0.11959790925535
N            2.04468077148844       -2.94200532200246        0.83894059963747
N            0.23920331567066       -2.04919863354804       -0.19636083702495
C           -0.73760960617009       -1.20560832478117       -0.28086630385118
N           -1.93502536016510       -1.62138253238987       -0.72317952524458
C           -2.82668830040992       -0.69150641367602       -0.39056918239354
N           -4.12709394153126       -0.82328512091471       -0.65981307623222
H           -0.30571099686096        2.08283613336345        0.93299786507589
H            1.86704230127445        3.39217737991492        0.46849994912695
H            4.05155357584871        2.85239132426799       -0.98448533505950
H            3.04636733700624       -3.02122157527389        0.87888457010170
H            1.47801437751403       -3.75605122321259        1.00420259160393
H           -4.78541619716114       -0.12179543165634       -0.36933675605763
H           -4.43846745603082       -1.64382816284005       -1.14908910048664
