31
 energy: -59.419318680532 gnorm: 0.000608563869 xtb: 6.6.1 (8d0f1dd)
N           -3.59705515545340        3.62169511843688        0.10189044279117
C           -3.18120482984007        2.54841566282338        0.06942984175563
C           -2.71353547585945        1.24174640895663        0.02872822227813
C           -1.36636593749282        0.79911222576230        0.03698433254790
C           -0.32026608760065        1.69538027712737        0.07396085679531
C            1.06199912569314        1.56863673282049        0.04223782316749
C            1.89995031545049        2.68075037099529        0.03571425707688
C            3.22407266657262        2.19788377841716       -0.02339143313857
N            4.35661104664872        2.91027973378495       -0.05285167215225
N            3.25410560381844        0.85610514259728       -0.04390234969579
C            1.98841365407693        0.41139356342527       -0.00296937155480
C            1.87136817593053       -0.97940792140969        0.01394966586585
C            3.17540386553303       -1.55688142172074       -0.00531389535426
N            4.19463710471089       -2.08544776247059       -0.01863842353483
C            0.81866095821697       -1.93255703763593        0.04400965672961
N            1.22487543056691       -3.22636496362599        0.11220273770856
C           -0.58481310403967       -1.74899605983506       -0.00153669823905
C           -1.32817869056525       -2.96525156896419       -0.03552658585387
N           -1.86639487179576       -3.97923503485929       -0.06522867197194
C           -1.47594112317828       -0.66908750089831       -0.01755837021798
N           -2.76920729098929       -1.02961979834281       -0.06785025181616
C           -3.52115615183231        0.07702694531939       -0.04274579126571
N           -4.85596891284748        0.02144479037682       -0.08043704863889
H           -0.64861867096881        2.73116235218257        0.11401972664958
H            1.59817843580370        3.70925116078229        0.06190303917179
H            5.22997572646584        2.41704407726894       -0.11004913136529
H            4.33982962079210        3.91346768122964       -0.05685253212065
H            0.54879812310054       -3.97109165298194        0.10343777345644
H            2.20514658194535       -3.45148118544869        0.11256291353448
H           -5.40587623547755        0.86167023935020       -0.06420064133844
H           -5.29851227608551       -0.87855074696269       -0.13790310196990
