29
 energy: -50.377960522821 gnorm: 0.000738675271 xtb: 6.6.1 (8d0f1dd)
N           -3.08436263564535       -3.28634725596903       -0.46152826797328
C           -2.74882768493608       -2.19440203526049       -0.30768788841497
C           -2.39231700088952       -0.86907563868865       -0.10911318377771
C           -1.10664138655618       -0.29177738042894       -0.12778839061709
C            0.03482064937681       -1.06362373836765       -0.31851300185307
C            1.38750118330669       -0.81198603759211       -0.21654678143920
C            2.32301467559285       -1.84886801688073       -0.23316269881551
C            3.58698678478275       -1.34822733862915        0.11622471779110
N            4.71099574514117       -2.08610085687494        0.27517136788143
C            3.48011892293584        0.03705639506751        0.31703394045796
C            2.16816783722100        0.44013951163136        0.07702193513551
N            1.88199037685474        1.71467606707042        0.01135218974986
C            0.82391566115827        2.47413598122919       -0.10473125820668
N            1.15684392343674        3.78515092909666       -0.34141842781197
C           -0.55427593238422        2.25099923528933        0.12538238420811
C           -1.35073531341331        1.13348837931709        0.14772900541659
N           -2.68011135745564        1.34581087167416        0.35608614876041
C           -3.30406974292048        0.18829220753114        0.20296024512282
N           -4.64075735849043        0.06389423599851        0.29538719797906
H           -0.19515711713032       -2.11357968172514       -0.48979096036379
H            2.10009349662489       -2.87917763128140       -0.44288622655639
H            4.73001384579917       -3.02946487246716       -0.07052573106350
H            5.59093656571112       -1.61354392868124        0.38745568141881
H            4.28376229882801        0.69935233444907        0.57566881185764
H            2.11352653226269        3.96937151848950       -0.58922291449808
H            0.45261865630003        4.43704714324207       -0.63578312271160
H           -1.12586175154406        3.15949090849165        0.28007184282823
H           -5.17096851709543        0.84948413430636        0.62696403413777
H           -5.05669768017409       -0.85031372923713        0.29310399025715
