34
 energy: -63.376648247430 gnorm: 0.000817376677 xtb: 6.6.1 (8d0f1dd)
N           -2.37713829388088        4.16649246628086        0.25900534832858
C           -2.33918768949913        3.02049143357694        0.15851010161241
C           -2.37053949435370        1.63461019615577        0.02685911934313
C           -3.54833657460090        0.90082242368277       -0.28048263880958
N           -4.76133723834438        1.43668502370881       -0.49354009061393
C           -3.20358874164075       -0.45285459510454       -0.32113886957656
C           -1.83735555916134       -0.60903794633732       -0.06355597752726
C           -1.29114337393724       -1.88977586302883        0.14897296325279
C           -2.30756462157478       -2.87564763101449        0.26098465183631
N           -3.11895196849365       -3.68383207128219        0.35643388015657
C            0.00957962864208       -2.43394297334288        0.25192271163043
N            0.06832263198454       -3.73313635383527        0.67005000408402
C            1.27012186928120       -1.87550687660299       -0.10774619587642
C            2.22131029579126       -2.88116446374511       -0.42504644968853
N            2.96300936793694       -3.71009343193411       -0.71518225360046
C            1.82140334940060       -0.58850899787652       -0.14868517296750
C            3.18953376859220       -0.40690721067930       -0.40886259139453
C            3.55046517389931        0.91684266977435       -0.16793948550426
N            4.77175560153832        1.46444559003829       -0.28501165963910
C            2.37566013413568        1.61937416797304        0.22722885428148
C            2.36106971780696        2.97524925598846        0.54337804502276
N            2.41471415298206        4.09427285656595        0.80706007047957
C            1.27408403985697        0.73607620431540        0.19636636317885
C           -0.00648620303552        1.24356248351190        0.33058238955581
C           -1.27824025109840        0.74119113377246        0.12096531390607
H           -4.89606545223935        2.42851992426112       -0.40201017357096
H           -5.55130140195061        0.84705831715670       -0.68355592910251
H           -3.89748557515202       -1.24912263052618       -0.51346585839769
H            0.93790472571047       -4.23609994866583        0.61686493625340
H           -0.77814026858003       -4.27010082872940        0.75788376717858
H            3.87444209401597       -1.17894266510470       -0.70390712383326
H            4.91751600445272        2.42761221068569       -0.03761254076756
H            5.55711620384597        0.90270936524316       -0.55947448608199
H           -0.00972770862920        2.31440015361859        0.52652304025164
