24
 energy: -47.780305940406 gnorm: 0.000639322009 xtb: 6.6.1 (8d0f1dd)
N           -3.52759857011078        2.41689130923739       -1.14423432778123
C           -2.90031139233273        1.52904920031251       -0.76767225591925
C           -2.19959679161998        0.42208700716115       -0.30164562096593
C           -0.82698823261255        0.17519447106906       -0.30033711793283
C            0.13806877870658        1.14420509176752       -0.56637080684935
C            1.46431947520451        1.20455649600107       -0.19528188672919
N            2.10121978595414        2.38664280790940       -0.12685216339102
C            3.19979544764216        2.14532687254312        0.58598469237203
N            3.40617496726935        0.89491659235084        0.98969992251036
C            2.38881572167859        0.19969106741041        0.46420785192771
N            2.40075949442410       -1.09041984866704        0.38148071250897
C            1.52727881168878       -1.95477777193095       -0.09000799315492
N            2.02228189876711       -2.98232290646746       -0.80759362083678
N            0.25047323344326       -2.04714130253826        0.25095188169506
C           -0.72297682513020       -1.20819270775572        0.29856372507836
N           -1.92549197016934       -1.61029627660998        0.74826627907557
C           -2.81237247552870       -0.69510255222174        0.38294851220681
N           -4.11377701127812       -0.81493874820517        0.63400968138319
H           -0.25241445214512        2.09120606907511       -0.92683905816407
H            3.89414191029227        2.93075322268956        0.82535556017645
H            3.02060481199363       -3.07125851980263       -0.88974417223919
H            1.43651933146121       -3.78320842844413       -0.96994175129055
H           -4.76445754401144       -0.11628632794327        0.31827201216081
H           -4.43690975718790       -1.61896917094199        1.14401659565835
