25
 energy: -43.492595415787 gnorm: 0.000982974461 xtb: 6.6.1 (8d0f1dd)
N           -2.91182753154672       -2.98694012826045        0.00151189220340
C           -2.47911845940403       -1.92096324241093       -0.00393640804927
C           -2.02647383753492       -0.60543983367627       -0.00542223403816
C           -0.70666284991475       -0.12134769354352       -0.00516396780852
C            0.38422018978916       -0.99076729534230       -0.00708688724422
C            1.74761358043560       -0.82327363336396       -0.00293188374695
N            2.48214909542363       -1.96528212757548       -0.00308507832556
C            3.75817109069505       -1.62099607616107        0.00358416490040
C            3.93516060537085       -0.23397507382165        0.00765022303011
C            2.66088580342045        0.34093824451578        0.00340214041319
C            2.48638841111547        1.72543074888460        0.00285982898495
C            1.40102390247928        2.57879021874169        0.00047719512551
C            0.01998577260841        2.41253299474866       -0.00056918205415
C           -0.85605065355874        1.33938666520775       -0.00226145148116
N           -2.17159000390719        1.66651877269564       -0.00039293484751
C           -2.87957281513720        0.54371908170009       -0.00232611301028
N           -4.21964115343201        0.52942903994097       -0.01598004591005
H            0.10844799246887       -2.04235000777722       -0.01089532169233
H            4.52574391221000       -2.37462791562236        0.00523154182018
H            4.87077302179908        0.29194537930245        0.01308697273187
H            3.43996823072652        2.24682152280870        0.00501299484829
H            1.68915539300424        3.62495532833820        0.00046905554364
H           -0.53516232737353        3.34507439392369        0.00006731807731
H           -4.71531020059395        1.40143605641167        0.02948826513949
H           -4.72080738444356       -0.33939521016458        0.03629288108981
