31
 energy: -59.416225555865 gnorm: 0.000715376041 xtb: 6.6.1 (8d0f1dd)
N           -4.18669154990834        2.57732512532329       -0.00183221996149
C           -3.21276988253874        1.96932141284998       -0.00331394915410
C           -1.96523264880383        1.28464716806519       -0.00150168240244
C           -0.82317311008183        2.13009468310687       -0.00165009142998
N           -1.09178295387859        3.46383593386994       -0.00321449568252
C            0.54548704014945        1.82467232756182       -0.00050495930406
C            1.33830625318916        0.69442709057327        0.00101458565290
C            2.74737666601665        0.83751937244185        0.00191820315084
C            3.44496001158031        2.04318924846401        0.00113449995769
N            4.03406187200793        3.03260972251715        0.00191093976251
C            3.36914152888952       -0.43613165145525        0.00340720815402
N            4.68903888478345       -0.66692337027354        0.00462144067374
C            2.35243453786420       -1.41070845515884        0.00309881131599
C            2.59013458580044       -2.78455388056047        0.00338635370972
N            2.85859740202405       -3.90301353683673        0.00671850098386
C            1.07982839148385       -0.77502570286374        0.00183990890684
N            0.02085416635600       -1.52036081690252        0.00130696587628
C           -1.27561057820035       -1.30455783741688        0.00020204104874
C           -2.15759697838529       -2.37803221992258        0.00001804083178
C           -3.46096587334470       -1.83620726578611       -0.00096397388344
N           -4.62001190550902       -2.50212022738459       -0.00128287962933
N           -3.44369514557633       -0.49227259355254       -0.00145347527500
C           -2.16275714926458       -0.09402276027767       -0.00087498631645
H           -0.34224779607631        4.13212696305988       -0.00273341607222
H           -2.04126952302862        3.79492068911780       -0.00353633913709
H            1.15074924889227        2.73031453522242       -0.00088278294560
H            5.03265021504339       -1.61170516698703        0.00552053862088
H            5.33910824964774        0.09979926384427        0.00455737771082
H           -1.88568104505473       -3.41354009407681        0.00060230220969
H           -4.63975809649510       -3.50535121283107       -0.00152521875564
H           -5.47585915268200       -1.97530576073138       -0.00232699701694
