29
 energy: -55.185129468262 gnorm: 0.000768417033 xtb: 6.6.1 (8d0f1dd)
N           -4.17895145907807       -2.29475491133389       -0.51919478403970
C           -3.16681955099487       -1.77975651143661       -0.33380767889786
C           -1.91267571931985       -1.18185945041230       -0.09997194627201
C           -1.89529043691186        0.21915234422724       -0.16476719253460
C           -3.02254488367607        0.97734218024331       -0.45350885369263
C           -2.70397634636313        2.31259237442857       -0.14023464514358
N           -3.50421497432341        3.38317801079761       -0.23435308749869
N           -1.44137529714055        2.43648362530329        0.30973151653849
C           -0.87607647028464        1.22207218176463        0.27530636859376
C            0.48172015290694        1.17473701855830        0.54178460744831
C            1.45188886376725        0.21703664149521        0.29176020328979
C            2.82614847845964        0.48382361435283        0.22419271564960
C            3.52202154051361        1.62756806411953        0.59135859812291
N            4.14702937178204        2.54954184914611        0.88287543312346
C            3.42309235357532       -0.66849187828017       -0.39652244413783
N            4.71565005167209       -0.79251656190676       -0.70723396636727
N            2.53646803219189       -1.62783010203856       -0.64176201089288
C            1.34600678414303       -1.19554849270500       -0.18290632185499
N            0.38874723457663       -2.04641752012565       -0.04010536682431
C           -0.88275980649914       -2.10539275399919        0.25040431068044
N           -1.26658862046960       -3.27194193777948        0.82938514074058
H           -3.96944341584362        0.61672953621070       -0.80392368546776
H           -4.42361963917591        3.30609462416930       -0.62832984836012
H           -3.13254470448009        4.28392376494634        0.00912579460807
H            0.87076918304581        2.14757484453295        0.82731942091738
H            5.02930363186278       -1.63700179330554       -1.15202501723068
H            5.36959879191829       -0.06692880868903       -0.47130357095080
H           -2.24247989081321       -3.50967178087054        0.88811775536310
H           -0.58001495354074       -4.00470810571338        0.89609250148976
