29
 energy: -50.369882355373 gnorm: 0.000750693325 xtb: 6.6.1 (8d0f1dd)
N            0.12244309693870        4.08860094180358        0.03756614558034
C            0.00237855151214        2.94246090439803        0.03303485173927
C           -0.14204091232008        1.54031291062012        0.02883773534324
C           -1.41820543956735        1.11127956827487       -0.39603536485413
N           -2.17078359404504        2.03034138368483       -1.03835496620026
C           -2.08703688034491       -0.11263835326474       -0.11287818513313
C           -3.47759858095830       -0.16983724472794        0.05163973682191
N           -3.92688886810294       -1.41301808087339        0.28444499501926
C           -2.87065289497922       -2.20249046327174        0.22667338891164
C           -1.66180960919457       -1.48574456781897        0.02158810179683
C           -0.44628581850351       -2.14075667951624       -0.09270402172116
C            0.85668934491529       -1.69068086858374       -0.14150769061217
C            1.92901707321763       -2.60160328443638       -0.32884540555928
N            3.11198830835376       -2.02534942994765       -0.27657396356762
C            2.88925113843640       -0.72188708431784        0.00052681409789
N            3.97533755005637        0.11441589059574        0.11114756031350
C            1.50953604919532       -0.41542465323801        0.10517303189614
C            1.04176071144156        0.86906123481128        0.45397479466134
N            1.92237312545941        1.63883607209185        1.13584393182688
H           -3.12908427067817        1.81881824337203       -1.25389317803451
H           -1.84858743550742        2.97942022657252       -1.13881032298386
H           -4.17456018362224        0.65022813884013        0.09164207462657
H           -2.96312437950619       -3.26537060930612        0.35944418653961
H           -0.53632774754391       -3.22224410606181       -0.13830019051856
H            1.83821690245326       -3.65536225633276       -0.52025275112698
H            3.85970151036758        1.04954767935967       -0.25425703995520
H            4.81985799765631       -0.34106639257892       -0.20798986830329
H            1.67623956419060        2.57624781307316        1.40704262876693
H            2.74646897367969        1.21582645197874        1.52790904532800
