25
 energy: -43.486364210292 gnorm: 0.000909409309 xtb: 6.6.1 (8d0f1dd)
N           -2.93507539161525       -2.99056119050394        0.00413373697497
C           -2.51789165545118       -1.91777342264300        0.00722876645010
C           -2.05796947698240       -0.60621016197611        0.00767904274687
C           -0.73010446972564       -0.14321688073375        0.00655001745328
C            0.35222514583287       -1.02973327375531        0.01016227699417
C            1.71283817230336       -0.86322175764758        0.00854825293709
C            2.57360762237713       -1.98259371378034        0.01072793769015
C            3.89270225585650       -1.56302798073204       -0.00028788247730
C            3.92640177417415       -0.16929024406408       -0.00906020803493
C            2.61914177779198        0.33875284860395       -0.00213044788010
N            2.46207091013592        1.63854109355950       -0.00391674496621
C            1.44970044615008        2.46413504377700        0.00000861879000
C            0.05736280148546        2.36070903748503        0.00002765998951
C           -0.85340036707899        1.31590427332934        0.00211263608586
N           -2.16334954030255        1.66837350771538        0.00027136563133
C           -2.89068540376994        0.55965192267584        0.00407829477979
N           -4.23137152023629        0.56772988664312        0.01798168504623
H            0.03685139579486       -2.07176609234077        0.01439080553295
H            2.23579798715521       -3.00350868885953        0.01935047319095
H            4.75361652824177       -2.20739554352414       -0.00161498476501
H            4.80385984418839        0.44845982203093       -0.01825566072535
H            1.80143221741456        3.49632163253419        0.00109056502878
H           -0.45265323727565        3.31776777606741       -0.00165150720303
H           -4.71186180487947        1.44844243336729       -0.02323792332855
H           -4.74827143028487       -0.29217050482824       -0.02867246714151
