25
 energy: -48.280978197199 gnorm: 0.000670784402 xtb: 6.6.1 (8d0f1dd)
N            0.30493840312592       -3.21102058990816       -0.91286503627838
C            0.02028017977880       -2.13328804965148       -0.64598311164161
C           -0.38276219540590       -0.78940668060841       -0.41032822743029
C           -1.74399260223513       -0.64985427291507       -0.12545979648371
C           -2.57436114859542       -1.71898167276659        0.20666788065483
C           -3.71511001752056       -1.22886858290140        0.86266750375089
C           -3.67589429154927        0.15099852004085        0.92424813918625
C           -2.53147889324721        0.59495294068515        0.22762508937429
N           -2.41736925047786        1.78857578512619       -0.25160613782772
C           -1.46434911634496        2.42336878387599       -0.88487640968953
N           -0.20279751861134        2.46443436820246       -0.59318473745031
C            0.65358686967942        1.61600807128544       -0.10857357990784
N            1.82970637985632        2.04808959372200        0.36350693238840
C            2.65192806353029        1.00182195766000        0.40355402604800
N            3.91675017515449        1.09951644574918        0.81194586812523
C            2.01053083437704       -0.21208614017138       -0.03094045600366
C            2.69267960886509       -1.42475517572374       -0.06777272723846
N            3.37127965577516       -2.35392122068649       -0.05225809202406
C            0.67370009854455        0.12830144730662       -0.27983560261100
H           -2.34509501441737       -2.75654078849277        0.05060479175098
H           -4.49938749673510       -1.84733316620312        1.26098004833765
H           -4.42396037742350        0.80291832077846        1.33048408770508
H           -1.80212640615181        3.16581064349623       -1.60332168374457
H            4.26507805705374        1.99683861732615        1.10106359767629
H            4.52591891787455        0.30015614157272        0.77742500443349
