27
 energy: -46.931154746620 gnorm: 0.000391741917 xtb: 6.6.1 (8d0f1dd)
N            2.84048273198443       -3.22134342026131        0.54862244680953
C            2.56242885875271       -2.11629380175730        0.37648298180207
C            2.26286742447795       -0.78006777502577        0.15509014741504
C            1.01252368952869       -0.13516150989565        0.23945711982767
C           -0.18118774359123       -0.83290316728593        0.33851627254395
C           -1.51187585748137       -0.48569968704855        0.17031619028440
C           -2.49434515283077       -1.47519662301650        0.09465452169182
C           -3.74018552860273       -0.88657133190144       -0.17404894590915
N           -4.91754880752031       -1.54247483140073       -0.29488290003762
C           -3.55773207683229        0.50306767624614       -0.24035468593830
C           -2.21498653101843        0.81496704186120       -0.01978391002308
C           -1.80590209564106        2.13035514912155        0.14779205880455
C           -0.57306071042525        2.73708668998093        0.38890498576781
N            0.66278257196306        2.38659349116267        0.18252365346199
C            1.33360042018844        1.29430583507200       -0.02141559751305
N            2.63288374147077        1.41772100943095       -0.36551605732579
C            3.19812355928395        0.22027168148998       -0.25777944661999
N            4.49336970087853        0.01174363396962       -0.53791957464664
H           -0.03484209367256       -1.90609110493173        0.44380724685873
H           -2.31662236809167       -2.52943480812279        0.20271629105778
H           -5.72103529316420       -1.04970561002271       -0.64255226549984
H           -4.91363121266290       -2.54424321687048       -0.37120996472523
H           -4.33684084860691        1.22206408053789       -0.41609810100482
H           -2.63096063383770        2.83584535641226        0.12696756263647
H           -0.63976416790209        3.77550183200284        0.71395541474626
H            4.91648093596157       -0.87807487298081       -0.34273472373269
H            5.06643208069236        0.80499605773212       -0.76345884253236
