29
 energy: -55.974765731278 gnorm: 0.000965518769 xtb: 6.6.1 (8d0f1dd)
N            3.58124760230774        3.01193955090099       -0.94595432943759
C            2.92715550282834        2.10735788547728       -0.67152243393994
C            2.17559706007894        0.97711814500239       -0.35153472572641
C            0.81669175641074        0.95774460332685        0.03584098103598
N            0.19766491958493        2.05054232431118        0.38580902882874
C           -1.04809880690146        2.36008597672629        0.64007794221432
N           -1.25883391430410        3.34026331260808        1.54446624346659
N           -2.11316982013252        1.97575399183849       -0.06015348066138
C           -2.51195311865095        0.81717882239231       -0.45755227490928
C           -3.72837851532013        0.65523701043231       -1.17746940193789
C           -4.12585791937443       -0.65271460280888       -1.05778732384666
C           -3.15270619004152       -1.39131924918430       -0.34584651323435
C           -2.08952332028722       -0.56100287822284       -0.02326166678784
C           -0.82625039239520       -1.04158281170849        0.37036933498103
C           -0.84751489014573       -2.40560231534217        0.77091573176671
N           -0.92829143361482       -3.47349494919152        1.18054993063157
C            0.43941818450968       -0.46100391330131        0.24877187653104
C            1.63584228268110       -1.20549595289516        0.12628936824498
C            1.86015688390101       -2.57756010047489        0.24307266802059
N            2.19231143139728       -3.67806684930905        0.29431562779680
C            2.68692703365385       -0.33697655944449       -0.28033647691005
N            3.94305950887406       -0.71491457556715       -0.54512417901180
H           -2.16079656197467        3.78348763943214        1.57075449442568
H           -0.45959437865160        3.83281468061456        1.90488160677339
H           -4.26784627674795        1.46460031179853       -1.62806958591811
H           -5.03490730055106       -1.07188290173861       -1.45012739666290
H           -3.19901613846763       -2.44756374035179       -0.15651326255261
H            4.62133687909688       -0.03892353779696       -0.85123054405072
H            4.21053941183686       -1.67871940142333       -0.43589313473069
