28
 energy: -47.461112931957 gnorm: 0.000501367834 xtb: 6.6.1 (8d0f1dd)
N           -3.88897412639175        2.66806984244275        0.01975098842553
C           -3.11637285756052        1.81543310402626        0.00644305239029
C           -2.21277220164149        0.75319980359886       -0.00440350187474
C           -0.79365727396874        0.85417413033511       -0.00411817317385
C           -0.21023846941822        2.12080697130349       -0.00139156898701
C            1.07773374178134        2.62058132784343        0.00154869084753
C            2.35192875157923        2.05913123883546        0.00464314541787
C            2.87339613636616        0.77824715774189        0.00332474313539
C            4.27019882530059        0.58960157050293        0.00765124367325
C            4.56328874517646       -0.76684179840207        0.00286056745311
C            3.36858317309136       -1.47494933575761       -0.00448639348964
C            2.28303709888584       -0.57771959593054       -0.00399488542232
C            0.99133082267181       -1.06483575880205       -0.00855527334604
C           -0.28177734252545       -0.50552194992639       -0.00777424382493
C           -1.41449794566859       -1.36832752420865       -0.01053956694014
C           -1.38821379681811       -2.76223766040734       -0.00692493202999
N           -1.39915832479815       -3.91290721049866        0.00050464515071
C           -2.59956657175879       -0.60357786916302       -0.00907623722515
N           -3.85997286318573       -1.07715436978576       -0.03593307726351
H           -0.96540758511042        2.90324062822087       -0.00113706014809
H            1.10167041617482        3.70509331865589        0.00272969349494
H            3.13586316980034        2.81187511885595        0.00900905498171
H            4.99045646799377        1.38761844405264        0.01361032140918
H            5.54831142221183       -1.19700877450799        0.00452884665402
H            3.27098026668034       -2.54529744024014       -0.00956721274543
H            0.95872960865520       -2.15278669267558       -0.01283834012070
H           -4.02667952046824       -2.06560392728869        0.03157960449930
H           -4.63565573725443       -0.44264976732116        0.03600553815876
