25
 energy: -43.474628645456 gnorm: 0.000515096161 xtb: 6.6.1 (8d0f1dd)
N            0.38553906193884       -3.65142877995141        0.94163460375631
C            0.29671231655310       -2.55052567240900        0.63308474778833
C            0.15337240564611       -1.17365454026010        0.29528465301977
C            1.37427427184575       -0.50519781406065        0.09355223936279
C            2.58419537923109       -1.19709937329778        0.07631005958661
C            3.61861097116984       -0.33844945433254       -0.33598019940328
C            3.09532767125751        0.90696406136743       -0.57001171182229
C            1.69874462158244        0.89835358264472       -0.26946808959609
C            1.02004235415819        2.07452969822849       -0.15649919051458
C           -0.32280950702612        2.38029070065413        0.23876333552624
N           -0.50591708760889        3.59296181269873        0.82750513366568
N           -1.41483187697722        1.72966108601102       -0.00856750970122
C           -1.80247490663580        0.50826671211352       -0.24967607160588
N           -3.05640174778870        0.31236206919809       -0.66782901432919
C           -3.30776009401587       -0.99901322415214       -0.56146939191144
C           -2.23249682225369       -1.72137824435685       -0.06678915457823
C           -1.17185385343146       -0.80565539540158        0.08202841141205
H            2.70332193948303       -2.24000064790597        0.30493084552230
H            4.64748794286762       -0.62702612802833       -0.45095669452904
H            3.63679492206445        1.78168617885931       -0.87878128302241
H            1.61155241442502        2.95931729435425       -0.37250539028688
H            0.23766330289712        4.26570145761354        0.87399755017012
H           -1.45291972868071        3.89755453837708        0.97557097604683
H           -4.27293254824172       -1.38115171441768       -0.84273574101014
H           -2.19747256245971       -2.77742868484713        0.11723190895350
