27
 energy: -51.725991849448 gnorm: 0.000996925491 xtb: 6.6.1 (8d0f1dd)
N            1.03393852199918        3.10918452964552        1.21205366714625
C            0.58124898696584        2.14952274660162        0.77690764517714
C           -0.06476479226694        0.96320680702079        0.33206793690693
C           -1.41491899133583        1.15346992341281        0.05405077683677
C           -2.02677232050247        2.40160191350236       -0.12190627524930
C           -3.24069998293786        2.15483919407273       -0.75788952404045
N           -3.50439054871829        0.85595572414372       -0.92530711631723
C           -2.48066593765446        0.18195123721730       -0.38783448098472
N           -2.61724439475113       -1.07482467768571       -0.11805428427234
C           -1.90642672080500       -2.08956260254132        0.28335757832770
N           -2.60432366105275       -3.05339724123666        0.92776570673247
C           -0.54971014925275       -2.38024425106304       -0.02794506405033
C            0.54503028143834       -1.57209935514247       -0.17663902299790
N            1.72032877594676       -2.19644174781173       -0.45112070505190
C            2.69038093199403       -1.30696869024143       -0.33937673451021
N            3.98001562786937       -1.59465532572601       -0.53507402883352
C            2.18154733502248       -0.00721049300525        0.02634431194695
C            3.03936522419422        1.08223607510381        0.15417334454713
N            3.87271401809544        1.87383180064898        0.20696683815694
C            0.79047734085943       -0.13367740633615        0.09985821892507
H           -1.61016808152049        3.36100532655242        0.11347147795387
H           -3.94621893051171        2.88938225339047       -1.10456691381373
H           -2.18694612279540       -3.94359484679413        1.12985761852421
H           -3.59671302585660       -2.93235734357472        1.03473050679147
H           -0.31726103504140       -3.43248291405033       -0.13972921380228
H            4.23752878484477       -2.52263554605089       -0.81952734677361
H            4.67715102367639       -0.87639295824933       -0.44354096747454
