34
 energy: -63.374007228390 gnorm: 0.000526763381 xtb: 6.6.1 (8d0f1dd)
N           -3.74442051431457       -3.56448357040672        0.95252023027866
C           -3.40847776399851       -2.50594661023120        0.64744277933205
C           -3.04159540439013       -1.21750303706194        0.27400067991212
C           -3.94297056690284       -0.23904401684417       -0.22368445213411
N           -5.26784601564701       -0.40972226544549       -0.37341509337554
C           -3.20371621893804        0.90788779339692       -0.51895921844617
C           -1.85555129420853        0.71034817976324       -0.18878452332180
C           -0.95690996072927        1.78651559210865       -0.17599123231703
C           -1.54338486767343        2.99580800284538       -0.63153663622432
N           -1.98580170351360        3.97702628836274       -1.03469232387699
C            0.36927128347489        1.98326293110672        0.30386168156049
N            0.64343994200986        3.26021496427520        0.69730037167001
C            1.46087097591598        1.08385860338569        0.33921564493441
C            2.68167850025611        1.70724956950505        0.71393025297711
N            3.62262002768505        2.23229181095381        1.11260168639783
C            1.62458739638760       -0.28416486415701        0.06516172549898
C            2.89699379358204       -0.82946991389774       -0.20280577531712
C            4.07488054404825       -0.18390628811298       -0.58196574766997
N            5.07839412835616        0.22800587651293       -0.96557680998904
C            2.81461447004750       -2.24995870929286       -0.15870573466474
N            3.84131926398163       -3.08580330446223       -0.38269958607751
C            1.49594393717555       -2.58855102389076        0.16169987134217
C            0.71636854077190       -1.42977921469859        0.24249886228545
C           -0.65335952311792       -1.53203508363897        0.45596696511959
C           -1.72600249131856       -0.68916907289908        0.25393306896252
H           -5.83564728249451        0.32889109688374       -0.74679385424369
H           -5.69992297306703       -1.27464979556548       -0.10051928400021
H           -3.62505090662060        1.82213775488424       -0.89204299690604
H            1.59580526150969        3.54416318518630        0.85692178129265
H           -0.04746331899226        3.98033170623915        0.57106082201585
H            3.70532315076575       -4.08014735471615       -0.36061799907256
H            4.73910375152705       -2.71431498837478       -0.64200708806956
H            1.12234801166389       -3.58891260897106        0.27552508542382
H           -0.95983874722770       -2.54667308004374        0.69862482980297
