27
 energy: -46.933218441534 gnorm: 0.000697474506 xtb: 6.6.1 (8d0f1dd)
N            3.49547510965303       -2.67614101005178        0.45781410825824
C            2.91229423677552       -1.69659430038766        0.29278552573519
C            2.25516935682551       -0.49033164729454        0.09284167282725
C            0.87342031165083       -0.22551168952179        0.12667078714681
C           -0.05955614440021       -1.24796932655397        0.31660984598117
C           -1.42538891656825       -1.31188205860346        0.19266138913800
C           -2.10579776855247       -2.54250374794771        0.15985539122823
C           -3.40817249853184       -2.33867271889215       -0.27907157475366
C           -3.62087354877381       -0.98057682133801       -0.49117543645316
C           -2.45503562468007       -0.27310257575585       -0.15765046202478
N           -2.47993917211400        1.02596906043110       -0.06895806278474
C           -1.64380746661293        2.00860205078597        0.16223782412143
N           -2.27503123404305        3.15432779964523        0.56578739268025
C           -0.25281740300444        2.12454234590561       -0.05744678474059
C            0.77788087224030        1.21735804453644       -0.13057111637610
N            2.01888887904314        1.73436115131962       -0.34735850511078
C            2.89725015136108        0.75329064188990       -0.21767058671801
N            4.21879470228637        0.92959372389399       -0.37330609643248
H            0.40947904606685       -2.21410334804682        0.49344121073707
H           -1.66118639226195       -3.49142552323365        0.39836087866282
H           -4.14135575753711       -3.11195690938247       -0.42679657619906
H           -4.53613317838322       -0.51925436884553       -0.80877602521039
H           -1.79814224323529        4.03683794455619        0.51770288557806
H           -3.28060447493302        3.15384481729486        0.54175238087957
H            0.09674307183849        3.14458665892055       -0.17410539899915
H            4.56708677781728        1.85108625957470       -0.56296068437006
H            4.85648042957641        0.17210913870052       -0.20883729309878
