31
 energy: -55.406153892664 gnorm: 0.000720127533 xtb: 6.6.1 (8d0f1dd)
N           -4.13460678785482        2.68392305703238       -0.36599536078139
C           -3.48148520871449        1.74696612848043       -0.21987789934368
C           -2.73189830047366        0.58704883325690       -0.05219626741258
C           -3.27236553575325       -0.67025434133049        0.30663150141216
N           -4.56682415301034       -0.91758779820278        0.58930161140470
C           -2.21365584425232       -1.58672769071231        0.34661903124370
C           -1.00906832025958       -0.94236135602914        0.05411070888218
C            0.16960477570926       -1.69279001482765       -0.17726406196945
C           -0.11888649641481       -3.07145851511001       -0.35853292949830
N           -0.34109078035037       -4.18746588691419       -0.51794436036530
C            1.54131671984142       -1.40382020732195       -0.23275459411084
N            2.36126369543438       -2.41847897117100       -0.64232076036011
C            2.23619417881190       -0.21684115906344        0.17667852483247
C            3.54536304197635       -0.51494951954989        0.64633251802522
N            4.57721824043051       -0.79770991103157        1.06352877609783
C            1.95575791893918        1.13988000948952        0.14094015822630
C            2.97385522182876        2.09739446057830        0.39982056134630
C            2.52326474489749        3.34950201805984        0.04116173398139
C            1.19976473969546        3.24367415946787       -0.40244043693585
C            0.78022333016480        1.91246950940077       -0.31488590714285
C           -0.56323032073898        1.59475234046224       -0.44307320959467
C           -1.31831744635368        0.47101427237104       -0.16887510805536
H           -5.25606016938225       -0.20519297050278        0.42222135236655
H           -4.87409690117963       -1.86336658667959        0.72930769632819
H           -2.32457141033773       -2.63184538404188        0.56797006987596
H            1.98611393451541       -3.34570350519358       -0.75323252684896
H            3.35721346242374       -2.33037247377443       -0.53163564118678
H            3.95720342175520        1.86291667271281        0.76175219054321
H            3.09131372870354        4.25996951487523        0.09697802605963
H            0.57681276986115        4.06022531816029       -0.71733324529906
H           -1.17361289151614        2.46033421291139       -0.68983695481995
