26
 energy: -47.211586078878 gnorm: 0.000719629771 xtb: 6.6.1 (8d0f1dd)
N           -4.80333942837998       -1.57254142660729        0.01904877208313
C           -3.86372612105111       -0.90725543342333        0.01374101769505
C           -2.75670355190868       -0.06705833457343        0.00703573952763
C           -1.38687629567126       -0.42197185045381        0.00033525529400
C           -0.98170541552220       -1.74617197746519       -0.00536752749592
C            0.25206692767601       -2.40634815749964       -0.01621587113203
N            1.51167801160028       -2.07481665963293       -0.00816348398635
C            2.18139511542309       -0.93985604273141       -0.00051643836056
C            3.57304828915569       -0.96427151862917        0.01451191430665
C            4.00533292554302        0.37432469666311        0.00695463840387
N            5.26867198664239        0.82235801649974        0.00665076660859
N            2.97228809138830        1.23908136007448       -0.00990788307206
C            1.83845347996326        0.52599228627703       -0.01167730122326
C            0.65487169463209        1.23860814487858       -0.01386344464099
C           -0.68550903939342        0.88083604669369       -0.00690046408788
N           -1.57559077584656        1.88402479765053       -0.00522789696369
C           -2.80579484446134        1.35065283353455        0.00287532184680
N           -3.90553412845602        2.11387568970866        0.00570748298623
H           -1.82170249226329       -2.43572245377309       -0.00353448035263
H            0.14675374535849       -3.49228041391989       -0.02981923818410
H            4.18782861447232       -1.84127117506500        0.02623483638754
H            5.43011564463227        1.81371051955722        0.02091253923043
H            6.04170548826045        0.18447082354900        0.05031358363335
H            0.80293622382622        2.31277477593818       -0.01652879859182
H           -4.81830693813381        1.69513828567706        0.01050659815803
H           -3.80349106348612        3.11275429047245        0.00089517762993
