31
 energy: -59.432098680646 gnorm: 0.000707215083 xtb: 6.6.1 (8d0f1dd)
N           -4.16883140305838        2.64812070832970        0.00305973756344
C           -3.20503540499427        2.02384076730610        0.00024324387856
C           -1.97386903797431        1.31311978635341       -0.00238018751100
C           -0.81646982942710        2.12233042646638       -0.00645813909258
N           -1.04533617349769        3.46384329484655       -0.01252240609683
C            0.55180226835862        1.78702401723407       -0.00600335784109
C            1.34597086777564        0.66219557240972       -0.00243584941904
C            2.76222144468044        0.83655107332088       -0.00120999195097
C            3.43321960246426        2.05747030984911       -0.00214046259665
N            4.00361799802827        3.05745490040465       -0.00530515976577
C            3.40120097024402       -0.41685971212665        0.00219439518104
N            4.72210244499308       -0.64385363424312        0.00455230068514
C            2.38656284797999       -1.40778241584019        0.00321914442220
C            2.65353269456717       -2.77630825952539        0.00751399894169
N            2.93351590775664       -3.89217687060880        0.00755541362587
C            1.11311839119648       -0.79249245443814        0.00032991772283
C           -0.02698390751895       -1.57204387416346        0.00027876380887
C           -1.38483185746471       -1.29786246388542       -0.00050509053640
N           -2.23123231180335       -2.33658448498380        0.00061381115954
C           -3.46161594515796       -1.79647825651018        0.00129915934687
N           -4.57130082039501       -2.53332450699521        0.00249842355436
N           -3.49239725748997       -0.45140536287453        0.00077382764480
C           -2.21175510734441       -0.06657894275018       -0.00077802712602
H           -0.27905330471671        4.11261915490591       -0.00930104302328
H           -1.98545312876267        3.82085256168784       -0.00854341087073
H            1.16427285778176        2.68782937663382       -0.00866736056551
H            5.07147522348487       -1.58641923553013        0.00694932100410
H            5.36853791028231        0.12574792008141        0.00356104577532
H            0.16363394856456       -2.64131821460467        0.00171361967605
H           -4.49666332898236       -3.53410300805797        0.00244650122639
H           -5.46329788477009       -2.07314242709166        0.00298040087883
