31
 energy: -59.407039190800 gnorm: 0.000928405096 xtb: 6.6.1 (8d0f1dd)
N           -3.45538873638912       -3.59818256141614       -0.16044428700776
C           -3.06685483891706       -2.51630937043457       -0.11096816458346
C           -2.68225339365937       -1.17909782345780       -0.04896034742770
C           -3.57402394909059       -0.09621470383310        0.06718686705560
N           -4.90979744954768       -0.18165169422048        0.13759223761319
C           -2.81595447715856        1.09311843090507        0.10020408334463
C           -1.45864236315815        0.81650630265376        0.01433076989620
C           -0.51407687103962        1.86612191051528       -0.04654843914579
C           -1.15579102701368        3.13318551873289       -0.08061714398798
N           -1.66351628463965        4.16423584406282       -0.10817714643777
C            0.89533817860016        1.97609782423601       -0.07682672755933
N            1.38124431542371        3.23969806934225       -0.22405007354396
C            1.90752415366482        0.97916038967727        0.04768651347255
C            3.23021019211934        1.49630027765774        0.16497566552115
N            4.27398906932156        1.96347505416423        0.26941826765064
C            1.94046321164881       -0.40903120167278        0.05466674297275
N            3.16650537949439       -0.96059754641215        0.14550086502735
C            3.02568342465530       -2.28918517032843        0.06638554966479
N            4.08962663360828       -3.09764428480574        0.11425556676914
C            1.66720302918716       -2.66915207422628       -0.07341210274445
C            0.92537806964474       -1.49825553638410       -0.06749296845340
N           -0.38978721640964       -1.54525416165448       -0.12239506468552
C           -1.34739024228732       -0.68433527137302       -0.06331878501699
H           -5.47083962575315        0.64787614608121        0.21594835224944
H           -5.35833662367878       -1.08052524408802        0.09543956418765
H           -3.25529618052552        2.07079933882089        0.17656376311715
H            0.75919918962194        4.02921045226851       -0.24814141395711
H            2.37259636564112        3.40407624197521       -0.18330940756156
H            3.98477558873038       -4.09474238745117        0.07172272946760
H            4.99846494969824       -2.68625927742553        0.23768205454428
H            1.27588471380766       -3.66298735941012       -0.14882176914088
