27
 energy: -51.726396350889 gnorm: 0.000810025009 xtb: 6.6.1 (8d0f1dd)
N            3.98830433891735        1.92916741098768       -0.13371100850553
C            3.01551609029234        1.32257555194392       -0.08327521757537
C            1.74690359917927        0.66559478215656       -0.02548819683007
C            1.94754554551106       -0.70922622606688       -0.02200461491183
N            3.25033593203419       -1.06813621116063       -0.05719165786787
C            3.30999256463922       -2.39487599798971       -0.02767986288567
C            2.04724773426523       -2.97956983875912        0.02470774944157
C            1.11026863238258       -1.93675594343490        0.02515900168837
C           -0.25022788671591       -2.16683614724455        0.04289523653258
C           -1.35272654335560       -1.33067179649541        0.02154738799842
N           -2.57093488863653       -1.89318816967851        0.01181082496361
C           -3.43817337591985       -0.86814387962733       -0.00855058986192
N           -4.75949358950129       -1.03745152501661       -0.02380656112634
N           -2.87161834371829        0.35247767620996       -0.00568715220642
C           -1.55220768894505        0.13631500950169        0.01075099641033
C           -0.74566881309341        1.28486345302744        0.02734939270414
C           -1.57875075188696        2.44047039623987        0.04401372403310
N           -2.20270538271346        3.40407328050840        0.05877127653511
C            0.63732483537692        1.56149656081011        0.02187678388906
N            0.96741503890269        2.87733314948049        0.05768581969327
H            4.26365834802796       -2.89099880802733       -0.04518927269265
H            1.82375144538395       -4.02782411794186        0.05342105942886
H           -0.53396177882712       -3.21399216042826        0.06423098677224
H           -5.35223635505739       -0.22789189280467       -0.05863929596472
H           -5.13904840548763       -1.96577122969816       -0.05463490563465
H            1.93178205327304        3.16261867941582        0.03808921996578
H            0.24661315877313        3.57902297589202        0.07623399200668
