27
 energy: -51.724307425281 gnorm: 0.000627805530 xtb: 6.6.1 (8d0f1dd)
N           -3.61542691169200       -2.53492576195716       -1.12912949326868
C           -2.84359322258969       -1.78707629518816       -0.72437308930276
C           -1.85653716982362       -0.91636040955782       -0.20838992983176
C           -2.10424119597417        0.42608672667884       -0.23987652057059
C           -3.38175136363375        0.94708392555952       -0.61913867605953
C           -3.49864367095367        2.21801492416808       -0.12665042353914
C           -2.28204796065634        2.61227051417243        0.48102791368020
C           -1.35355739674618        1.59199985066000        0.37632416491013
N           -0.08086862141076        1.82022089494598        0.62264452058610
C            1.01021038920230        1.16269482052405        0.41989576606784
N            2.17904857059375        1.83914224127781        0.38770039610274
C            3.11375606052286        1.01106238445560       -0.05384796516863
N            4.37634727434953        1.39677628132335       -0.25369711247029
C            2.61475988997153       -0.32501202664506       -0.27155440634339
C            3.38216707195738       -1.40502275617650       -0.69278882796362
N            4.05562544390871       -2.26837644617251       -1.04657132917751
C            1.27161278269051       -0.28866905819721        0.08779120942465
N            0.52371904104885       -1.34657138141018        0.29204707387690
C           -0.72467238705616       -1.62705506437074        0.40026272198296
N           -1.03762677623473       -2.76561666582226        1.06194386722075
H           -4.13813490178445        0.38090508609211       -1.13003692054592
H           -4.37188617645320        2.84078520705099       -0.20339822055939
H           -2.07126162556245        3.57689488125701        0.89954627680979
H            4.62972711510047        2.34663969687953       -0.04623425103309
H            5.05901436191451        0.74980520667139       -0.60727923610702
H           -0.27795424441103       -3.34391696689913        1.38038873083821
H           -1.95536359527896       -3.16954890751967        0.98207388113950
