31
 energy: -54.617286818871 gnorm: 0.000818058703 xtb: 6.6.1 (8d0f1dd)
N           -1.84826489914204       -4.31531196143598        0.02476012148542
C           -1.82938639651758       -3.16321263497036        0.02567091481761
C           -1.84925437574763       -1.77623729414356        0.02121947452510
C           -0.74415090515195       -0.88663867670470        0.01050425232371
C            0.55433938783787       -1.36661829621369       -0.00547557286936
C            1.81087127544120       -0.78894540913351       -0.00966795599059
C            2.95198109352765       -1.59276765587980       -0.01893622582904
C            4.10193214431769       -0.78500801073616        0.00058301425497
N            5.38144604993294       -1.22956277739488       -0.04527417752482
C            3.68792167194902        0.54987499293295        0.01899387832391
C            2.28661344137098        0.61777564570471        0.01083088943496
C            1.66984705060787        1.85451770638165        0.02226992477750
C            0.37288289996155        2.38620955024746        0.00817109290673
N            0.34246103791324        3.75683245548891        0.05308961689802
C           -0.89570013800323        1.76155992267687       -0.01462475717507
C           -1.99786978513523        2.66019856444883       -0.06189522479349
N           -2.83717265745242        3.44309380085440       -0.11607909438272
C           -1.36163092755474        0.44161458131241        0.00319227759425
N           -2.70604317072117        0.32830978020411        0.00418444474155
C           -3.01724210926983       -0.96877995710952        0.01932125447436
N           -4.28929843698341       -1.39430045635265        0.05220693461335
H            0.59327209540856       -2.45376932173297       -0.01334625161560
H            2.94861114723917       -2.66706656745845       -0.03480939331839
H            6.12821814222153       -0.58463138122081        0.14422823519349
H            5.56027536628246       -2.20570648587790        0.11234250154053
H            4.34524968495120        1.40009176686099        0.03515748516468
H            2.41190182707844        2.65091881179765        0.04287331450193
H           -0.53163561467212        4.24085032246661       -0.05776466758747
H            1.19071519018409        4.27772683565222       -0.07226648935686
H           -5.02337316093568       -0.71232521510794       -0.01276222093747
H           -4.49864146433859       -2.37407194005694       -0.01328066419137
