28
 energy: -56.237883487948 gnorm: 0.000826959014 xtb: 6.6.1 (8d0f1dd)
N           -1.55860312282320        3.98054064362026       -0.71163461587612
C           -1.05953505201486        2.97336933627846       -0.49585290580123
C           -0.47035524833847        1.69724712698661       -0.25783514658445
C            0.91278495505614        1.71695619500956       -0.16363715507346
N            1.49319674976240        2.92271118899674       -0.22196234772706
C            2.78624585803093        2.76804564725056        0.06371927722232
C            3.12059801109073        1.44319031081252        0.30485826394506
C            1.95112054579943        0.67983167444643        0.12750543856494
C            1.98811269260198       -0.71610308824517        0.12079505295462
C            3.29001204892320       -1.21389361882135        0.41006607303597
N            4.32367747903297       -1.64242244262405        0.66796877333257
C            1.06620610183523       -1.76640557620074       -0.16515993754280
N            1.63062552960061       -2.96586206473046       -0.45897464434540
C           -0.34564909245868       -1.76331080114127       -0.10789257513792
C           -0.94280907473000       -3.05415230583631       -0.18479947899653
N           -1.37985957050605       -4.11220127086901       -0.26243446405179
C           -1.33870373366771       -0.79244945615706        0.05167050634430
N           -2.59113781516701       -1.23718468942388        0.21898801643886
C           -3.36597472923001       -0.14321188646364        0.21974815330218
N           -4.68256942905679       -0.18460269024169        0.38517584648697
N           -2.70031420658340        1.01854899625071        0.03034767030478
C           -1.41753637714957        0.68288631297047       -0.05924558107439
H            3.43839983719233        3.62193124397741        0.08748412102234
H            4.09774636611099        1.07020496189416        0.53861807476826
H            2.62880248367676       -3.08648029719605       -0.42101934977322
H            1.05053988204510       -3.78348548904188       -0.55125068629403
H           -5.20436215457347        0.67349254798876        0.35825528584573
H           -5.13588522395782       -1.07217335818959        0.51064382780912
