28
 energy: -50.662133167677 gnorm: 0.000928632225 xtb: 6.6.1 (8d0f1dd)
N            3.08395349521742        3.20731295877649       -0.75693195989634
C            2.70640015258842        2.14713554160426       -0.51160696109251
C            2.33076107287080        0.84764141012160       -0.19826093727821
C            1.05978577204061        0.26258456400231       -0.21144053562769
C           -0.09214902856174        1.00677513636989       -0.47289566270099
C           -1.43123195005683        0.74304805778196       -0.30972172874468
N           -2.28411372273385        1.78493681636826       -0.33256380334119
C           -3.46749702699639        1.33697069057569        0.11021133420276
N           -4.50501992133649        2.17673858850197        0.25371960349983
C           -3.45698873881936       -0.05003962541089        0.37812327818887
C           -2.18595099715173       -0.49967708170663        0.06269776916084
N           -1.89401190665367       -1.77930561959126       -0.04183680636704
C           -0.82757415662024       -2.50913199906266       -0.15688978851789
N           -1.07718535764225       -3.77901847154083       -0.58700486008164
C            0.53330756564088       -2.26076264442927        0.20471391544565
C            1.30496518094154       -1.13661672834592        0.20544512027591
N            2.62740858165662       -1.30513687616628        0.51285370450879
C            3.24304415598737       -0.16622231928258        0.26798997077941
N            4.56403795956685        0.00496950516848        0.42330154506144
H            0.10115274754158        2.04980976098637       -0.70660025544833
H           -4.38763781908283        3.13517916972503       -0.02111183987164
H           -5.39342560680944        1.84983971388658        0.58395906672632
H           -4.28578094388703       -0.64394336335282        0.70698013272858
H           -2.03523185253246       -4.04793285656735       -0.72657275068522
H           -0.36917289115015       -4.48901645618726       -0.53812165823163
H            1.09334560584376       -3.15124968583736        0.46791159199869
H            5.11146309245974       -0.74563201399822        0.80344223269656
H            4.98022658707690        0.90393590601096        0.25973521301192
