30
 energy: -60.487937645914 gnorm: 0.000781236580 xtb: 6.6.1 (8d0f1dd)
N           -4.95874500494188       -2.68631710000554        0.02912340535715
C           -4.14853669917771       -1.87053298821125        0.02089273987522
C           -3.19712850839887       -0.84846407710935        0.00874937368748
C           -1.79319423111791       -1.01384931032999        0.00906972847858
C           -1.23143282400981       -2.28082838535922        0.02074240205503
C            0.07816240266985       -2.77141545365153        0.02243982546442
N            1.27787974683564       -2.25418410822673        0.01836315010310
C            1.76712930837301       -1.03960471400911        0.00782490909157
C            3.16881089440678       -0.88023336370223        0.00865960001134
C            4.12327171199602       -1.90129068531246        0.02059403166187
N            4.95980564445724       -2.68860183640701        0.03035748650154
C            3.50233893960150        0.49927583365599       -0.00580260840684
N            4.73697582384028        1.00732870620644       -0.00983742356602
C            2.29583818869045        1.23814192429801       -0.01522807935759
C            2.25062617762739        2.63532703529450       -0.02956413982954
N            2.29612844569942        3.78299388440253       -0.04326617599882
C            1.19203365053860        0.35413031599771       -0.00724570640969
N           -0.01098482146581        0.85452770540401       -0.01190071841891
C           -1.21945179936647        0.36106860476343       -0.00618291509090
C           -2.31190677691346        1.25787869500338       -0.01493916171198
C           -2.25376303173027        2.65440469731085       -0.02986748504343
N           -2.29648170978229        3.80207665158643       -0.04278185576975
C           -3.52610055921930        0.52956207695529       -0.00623571329915
N           -4.75699007818166        1.04986386479339       -0.01114748245365
H           -1.97559032910012       -3.07190010868565        0.02919638889214
H            0.13360626729460       -3.85930899320327        0.02980560565891
H            4.87268040751437        2.00462687343084       -0.02076625441469
H            5.53640658036142        0.39594128354043       -0.00235653454165
H           -5.56414611154038        0.44934250361735       -0.00415601618917
H           -4.88101559986875        2.04838284595258       -0.02203115603948
