29
 energy: -55.170992312665 gnorm: 0.000585841921 xtb: 6.6.1 (8d0f1dd)
N           -3.67683855878451       -2.80713248522050        0.57383050079792
C           -2.73557614833809       -2.18444910996611        0.34891375230538
C           -1.56034651045072       -1.46129987979668        0.06500960040181
C           -1.65690559350560       -0.07715889231299        0.19330301221553
C           -2.84470521372555        0.57146730907437        0.54241494115592
C           -2.65571421006232        1.93091762047433        0.27740309279314
N           -3.52934558892475        2.93629835268626        0.41470400984871
N           -1.40565906427962        2.18441639061101       -0.18649399899677
C           -0.74124414036273        1.03583182480418       -0.21280450306284
C            0.63391482237352        1.11596846881479       -0.48006562965132
C            1.06423792307948        2.42433951486505       -0.83943052510300
N            1.41602575257506        3.46175866650252       -1.17510769502041
C            1.67919502617893        0.22764309442319       -0.22797322889036
N            2.91899853504370        0.69782032797050       -0.13077892727186
C            3.68281563825872       -0.29310290138423        0.39071072848846
N            4.97914982218202       -0.06782520655178        0.63534254401252
C            2.96054566022435       -1.48043557445133        0.58899218303052
C            1.66978279027595       -1.22977757786490        0.13620933073680
N            0.79407348785040       -2.16536248391438       -0.11617468134316
C           -0.46941992851743       -2.28723682449284       -0.38045727180454
N           -0.80709311807353       -3.42700753251774       -1.04194722732757
H           -3.74630005036242        0.10783370349642        0.89027767804931
H           -4.43016575862857        2.78657658329030        0.83040915985338
H           -3.21963263658522        3.86660787018215        0.19548676057316
H            5.54646999241354       -0.75143815580813        1.10175138138498
H            5.34781748312699        0.84494477333487        0.43379120098408
H            3.34246681535226       -2.41338913551294        0.94995602012562
H           -0.08284460009053       -4.10879638861252       -1.19178107764900
H           -1.76648661984488       -3.72819313712398       -1.06996887903584
