26
 energy: -47.201292525526 gnorm: 0.000662405649 xtb: 6.6.1 (8d0f1dd)
N           -4.79187348925048        1.54677968663664        0.02807981406581
C           -3.84143310268983        0.89664029968771        0.01839081756283
C           -2.72154777847523        0.07441198492881        0.00700137452889
C           -1.36573822032975        0.44052463680571       -0.00050442326345
C           -0.96368522260455        1.77332226688620        0.00392724592597
C            0.26744272388675        2.41625889322129       -0.00051072037206
N            1.53052276428285        2.05393442532994       -0.01151766990096
C            2.15490850334619        0.90545195862958       -0.02223024282631
C            3.55165289519398        0.90561822547314       -0.03218722608806
C            4.03154326416443       -0.41128199912008       -0.04182069976508
N            5.32311806239309       -0.78256453175909       -0.05570126264740
C            2.92864673820694       -1.29215677640368       -0.03895396126264
C            1.74391449453998       -0.56945458889581       -0.02691422574187
N            0.60624924111873       -1.21976432845251       -0.02230098789158
C           -0.64549417886611       -0.87163678976245       -0.01166928154845
N           -1.53933589118488       -1.88149057499098       -0.01026427989761
C           -2.75889513624333       -1.35600434299121        0.00062441505021
N           -3.86478769807931       -2.11027520270619        0.00530758162105
H           -1.80319627927002        2.46320849755547        0.01336956902025
H            0.18758032446195        3.50364335193766        0.00640393867541
H            4.15175251232622        1.79580740569824       -0.03181779228719
H            6.05190908771392       -0.09180598079974       -0.04387010058480
H            5.57199669605764       -1.75542234347877       -0.04829666720844
H            2.98111116642195       -2.36435177450078       -0.04476721495857
H           -4.77510770343725       -1.68593186527157        0.01195585057983
H           -3.76754930848414       -3.10975058545602       -0.00149202968687
