24
 energy: -43.766200121027 gnorm: 0.000663230123 xtb: 6.6.1 (8d0f1dd)
N           -0.01163707281957        3.44737021775638        0.00955237028766
C            0.12184420013841        2.31009547418894        0.00650096917871
C            0.25980424821339        0.89054331835510        0.00250609392513
C            1.57708523710934        0.45356895948619        0.00048916827273
N            2.52222907154217        1.41198472758861        0.00044309963754
C            3.70928181470506        0.81250903807015       -0.00149953255072
C            3.59964890556012       -0.57376353630400       -0.00236998430332
C            2.22914310652908       -0.88252061171766       -0.00135881426280
C            1.79297592132026       -2.20022569691945       -0.00069731369049
C            0.56225718535261       -2.84341617773373       -0.00091715855704
C           -0.75472149499794       -2.42452654187653       -0.00281460190144
C           -1.39687799776123       -1.18999555409423       -0.00310474064347
N           -2.73959809555752       -1.19807240057772       -0.00561047175603
C           -3.10635874078906        0.09228139138622       -0.00311202086819
N           -4.37841373098202        0.48987216620298       -0.00079774687930
N           -2.08448249342762        0.97151963135742        0.00055198443619
C           -0.97771019011316        0.22673752930145        0.00045854287199
H            4.60948697801793        1.40038443142377       -0.00218093709494
H            4.40641598404846       -1.28105765585985       -0.00371466769338
H            2.62900648099759       -2.89475613007615       -0.00012749558115
H            0.65650826582391       -3.92430339271214       -0.00006834643232
H           -1.48374657253092       -3.22808713275210       -0.00415066784343
H           -4.57813979581892        1.47348427748795       -0.01146851849668
H           -5.11328663146038       -0.19291615418159       -0.01860909655524
