26
 energy: -52.004227402422 gnorm: 0.000555339358 xtb: 6.6.1 (8d0f1dd)
N           -5.05478066546395       -1.96575419054424       -0.03138321758163
C           -4.18957931458507       -1.20761810353342       -0.02020636532535
C           -3.17357667787048       -0.25671848713709       -0.00480283614786
C           -1.78344931153187       -0.46498464797164       -0.00528483057936
C           -1.23003293472008       -1.73539323024697       -0.01955252302706
C            0.07768930778345       -2.22683552247357       -0.02114049394592
N            1.27673825459748       -1.70984252857184       -0.01516669089771
C            1.75763428834858       -0.49000193304520       -0.00067374586399
C            3.14601889508746       -0.28482591043213       -0.00089276590024
C            4.17358909767312       -1.22484885138245       -0.01408972015065
N            5.07306297862631       -1.94097640637058       -0.02501077657079
C            3.35059400913224        1.12961614208934        0.01782356640653
N            4.52634629633104        1.75262750686920        0.02501881890126
N            2.19659053811221        1.80488552714381        0.02813773652735
C            1.18871178200213        0.92863987145248        0.01814650284970
N           -0.01267950883351        1.42675525742059        0.02401929623004
C           -1.21901800916409        0.93698836558404        0.01614427307243
N           -2.21728560328263        1.82194476868035        0.02810704274604
C           -3.37764538221716        1.15542130612509        0.01621013333447
N           -4.55031987814403        1.78666218332639        0.02386723574588
H           -1.97742830303560       -2.52364506842067       -0.03045670224282
H            0.13241400015003       -3.31499933784378       -0.03105221734889
H            4.53976091909005        2.75829168035928        0.03906385157349
H            5.38507581576570        1.22906766459570        0.01729061728970
H           -5.41363283578908        1.27141983905215        0.01471440336551
H           -4.55612542516502        2.79206089827534        0.03891283124110
