29
 energy: -55.979214628947 gnorm: 0.000826846666 xtb: 6.6.1 (8d0f1dd)
N           -5.46065712471228        1.82858667384396       -0.00318008149241
C           -4.54517975101926        1.13212393885747        0.00155791513128
C           -3.47026064503548        0.24853360564252       -0.00003894802939
C           -2.09377748298649        0.54355222117956        0.00003844666343
C           -1.62686987108115        1.85552831504990        0.00095772146886
C           -0.36802561028114        2.44284161639397        0.00173518187188
N            0.87584038893994        2.02658551944528        0.00126777873141
C            1.49683494653331        0.88216822350512        0.00072094215079
C            2.91730058572099        0.90069400810295       -0.00009184822776
C            3.73636054918584        2.03246759791270       -0.00144468904940
N            4.47825000274843        2.90985658022555        0.00140740592656
C            3.41428532410852       -0.41762101335189        0.00008999936059
N            4.70078602337551       -0.78422840950427       -0.00031785043632
C            2.29711887056750       -1.29682653947186        0.00052170584292
C            2.41766755657063       -2.68779638002998        0.00048236721187
N            2.56779052273977       -3.82780509264041        0.00037986308915
C            1.09754280463606       -0.55695228698397        0.00070162806554
C           -0.12485391493263       -1.20646160341789        0.00036883197991
C           -1.44508531096206       -0.78295071578616       -0.00003589967624
N           -2.37696079545555       -1.75253338413152       -0.00066629177155
C           -3.58120946199247       -1.17406261675580       -0.00080555500094
N           -4.71209242217107       -1.88464757157218       -0.00128679142335
H           -2.43382344964031        2.58265588388226        0.00114385484815
H           -0.39801603712418        3.53210676860549        0.00273428535223
H            4.95188725746475       -1.75817570124432       -0.00019165447420
H            5.42323032594073       -0.08438476722053       -0.00059366431899
H           -0.05694101119590       -2.29086681400893        0.00015936786365
H           -4.65417864065317       -2.88770387890674       -0.00154937689303
H           -5.60652687178885       -1.42716516422028       -0.00130328976461
