27
 energy: -52.512452918139 gnorm: 0.000735908063 xtb: 6.6.1 (8d0f1dd)
N           -4.00437327606451       -2.78614210646196       -0.44246296493216
C           -3.22289361368884       -1.95441723716885       -0.30556638705299
C           -2.30060031680492       -0.91973254273331       -0.14165660915461
C           -0.90212485699940       -1.07665870071857        0.09262644211044
C           -0.40858926712581       -2.33877880802636        0.35075297282278
C            0.87835180732829       -2.84700704378722        0.59521216589335
N            2.04481401508116       -2.42647944422639        0.23429664907522
C            2.59703972307881       -1.29970860492323       -0.10330550903746
C            3.90780006855131       -1.19939456520035       -0.60444985055893
C            4.27272072467416        0.13488644075952       -0.48041667237160
N            3.29633208335340        0.89734198537315        0.02036302747827
C            2.21632074427490        0.12239239526693        0.17950069656988
C            0.98222387945980        0.74823944576268        0.34205990724087
C            1.14221453690083        2.15084411110987        0.54549164993551
N            1.29938392879233        3.25821083818751        0.79157343924742
C           -0.33881420892647        0.28530353412392        0.19108710038248
C           -1.41844614176865        1.17463318559108        0.05597792247671
C           -1.47632327728399        2.57303143348539        0.05532300759448
N           -1.72896125405644        3.69340604057656        0.00784849055565
C           -2.62762320562458        0.44307056379365       -0.16505038322118
N           -3.83389481024221        0.98677425344118       -0.35610758893348
H           -1.17943030319501       -3.10355560145774        0.37890824213383
H            0.90742982687121       -3.84313728520389        1.03107963055331
H            4.51256135393852       -2.01487721514542       -0.94568628980632
H            5.22235727827643        0.57855251164963       -0.71933031539677
H           -3.93976504666457        1.98777716094115       -0.34646026540580
H           -4.63725015343694        0.40265954968924       -0.51261687340013
