26
 energy: -47.979090292670 gnorm: 0.000693352385 xtb: 6.6.1 (8d0f1dd)
N            3.04636756636979        2.68854509963978       -0.85239682745726
C            2.27891334167767        1.90632374031467       -0.51141919383194
C            1.29398841481980        0.95209808758883       -0.12545441308959
C            1.79018360065661       -0.33544676185164       -0.02749987260514
C            3.18047273155620       -0.59667539762219       -0.17044557506995
C            3.42973197069587       -1.93536486450209        0.04252094487892
C            2.21901737321587       -2.59221085375374        0.29454099164061
C            1.16794002606937       -1.67258188935665        0.24992058743245
N           -0.05688966082865       -2.11815573847101        0.32706836798021
C           -1.23590228245113       -1.64152790962989        0.12177444146922
N           -2.25779545516071       -2.53265941659261        0.09823228399999
C           -3.35258004993939       -1.88374539790278       -0.23747142743128
C           -3.14393671760978       -0.49997344076609       -0.36377193574657
C           -1.78910770221516       -0.27163263742713       -0.13772031735155
C           -1.26523806646297        1.02184751570210        0.07502288940939
C           -2.30379143580285        1.97736763541059        0.24517980087662
N           -3.13682157429420        2.75563838140279        0.38529254771321
C            0.02527216775695        1.57188819997705        0.13985786735228
N            0.09956712792433        2.90092803641100        0.43634111083962
H            3.92574965948553        0.15308145291890       -0.36092710329647
H            4.39838718466264       -2.40023389590154        0.02159177754312
H            2.08112526361673       -3.64151765281156        0.46696154976260
H           -4.27937868511370       -2.41047137947738       -0.37853064734256
H           -3.89118079401127        0.23129541077179       -0.60620553107768
H            0.98097175898252        3.38313796422471        0.40528630012266
H           -0.74144368540009        3.45013004570397        0.49391205327901
