29
 energy: -55.194667857102 gnorm: 0.000908404931 xtb: 6.6.1 (8d0f1dd)
N           -3.93598766269767       -2.83544953959232        0.86005965943168
C           -3.44131251018119       -1.84180662175884        0.55181470776141
C           -2.88192039615015       -0.63183154379078        0.16838917543544
C           -1.55307677863432       -0.19240554646847        0.31265902099098
C           -0.50838407505451       -1.02436025151067        0.68342706563354
C            0.86128583407842       -0.93541597496153        0.46914248918630
C            1.69714623929028       -2.04837503961462        0.49207335075438
C            2.93532916000174       -1.72476702742286       -0.09476827522940
N            3.96633271770431       -2.56169825941783       -0.28672212481252
C            2.92197914055413       -0.35637266927122       -0.46341579547695
C            3.99789487514609        0.31872966307443       -1.03351272272491
N            4.91511867831847        0.82450100030364       -1.51054435479743
C            1.69295461439557        0.20272221229511       -0.04907514857303
N            1.51298574335993        1.48097701846295        0.04953450853774
C            0.48002198876161        2.23302110640129        0.38596433451729
N            0.77471353572666        3.32822484471438        1.12490324505379
N           -0.75165138320452        2.16905932670983       -0.07692627957901
C           -1.58730409772539        1.19679605930452       -0.25267094837700
N           -2.77835715994623        1.44199470566437       -0.82061808093316
C           -3.56184006918363        0.39534313013032       -0.56439617307509
N           -4.83391619772133        0.34591547086743       -0.96986894044125
H           -0.83378304166705       -2.00794844033747        1.01314240320769
H            1.41772727362271       -3.02851284224823        0.83227747708293
H            3.92513034503912       -3.50999500435624        0.04069178219794
H            4.80385230513537       -2.22937163409404       -0.73290556491979
H            0.08687748816138        4.06034742290708        1.17156137734988
H            1.74411382400998        3.56000414322028        1.25927008245062
H           -5.20653982637900        1.12299872651005       -1.48606103613946
H           -5.42165193826401       -0.42941914842165       -0.71943075761237
