27
 energy: -51.725734933886 gnorm: 0.000505060419 xtb: 6.6.1 (8d0f1dd)
N            5.03720968707623       -1.99197708672970        0.00381919154569
C            4.17842237967573       -1.22585302966533        0.00101161268507
C            3.17456398760069       -0.26328968209165       -0.00074470460963
C            1.78625049802421       -0.44651250783614       -0.00037810320344
C            1.20902494513611       -1.71596368563320        0.00221586407174
C           -0.09626238453789       -2.18269722603302        0.00298468330393
N           -1.29611496906932       -1.64094461478609        0.00182173856716
C           -1.75977266964409       -0.42596074420852       -0.00082464621890
C           -3.16186344954550       -0.23573038698158       -0.00104566261155
C           -4.14223797305414       -1.22841628851390        0.00157793426787
N           -5.00867748516575       -1.98456879987252        0.00221360576171
C           -3.45473372290238        1.15162894946545       -0.00418448983223
N           -4.68616555696904        1.67656283754599       -0.00531838053750
C           -2.23973312114672        1.85987219816267       -0.00579730584855
C           -1.16663567069333        0.97680875839958       -0.00387688791993
N            0.05158577714931        1.46464143651158       -0.00484031064355
C            1.24398023738912        0.95351148034992       -0.00358266656515
N            2.26393525540860        1.83463666302179       -0.00543616054251
C            3.40316016492729        1.15356497051425       -0.00381037857290
N            4.59740092956683        1.75120245634122       -0.00505828767974
H            1.94763098986603       -2.51246755212553        0.00398056582132
H           -0.17492246389719       -3.26914196451532        0.00516557949925
H           -5.48967241008918        1.07101588021939       -0.00386430882311
H           -4.81753637320299        2.67251384201552       -0.00744133604157
H           -2.13750214669216        2.92839550380062       -0.00813051199038
H            4.63490901482647        2.75520758124361       -0.00729640678541
H            5.44329974236316        1.20889934480094       -0.00376546989770
