32
 energy: -59.133727789630 gnorm: 0.000902820419 xtb: 6.6.1 (8d0f1dd)
N           -3.42260047444295        3.49413467428682       -0.89491440917829
C           -3.03556511308215        2.44551627330429       -0.61831709145605
C           -2.63933014082360        1.15376197030047       -0.28427567335276
C           -3.55178090548315        0.12235824353149        0.09800945099290
N           -4.88681572597766        0.26445711944962        0.15354107571809
C           -2.80784709827860       -1.01484468055054        0.38664397295011
C           -1.44166716475845       -0.76919336601090        0.15433986276968
C           -0.52054050669852       -1.81806895311197        0.18148798106000
C           -1.09764057181051       -3.04307577824505        0.60740654644306
N           -1.52757506872226       -4.03642010657618        0.99484558483428
C            0.84392777201720       -1.99040022097221       -0.21821573872427
N            1.15252590827412       -3.26348605807679       -0.60916130348105
C            1.91495138762505       -1.08350033256728       -0.19837967066268
C            3.17805930380613       -1.68341254649019       -0.43377389176331
N            4.19987704930340       -2.17200572182404       -0.63096646084472
C            2.04893334173243        0.30260133910216        0.05148795223614
C            3.27938909458782        0.90162049133558        0.27397870040995
C            3.05815234456728        2.29697913954495        0.27757728006227
N            3.96469713489637        3.26005807264152        0.49750680512976
N            1.77411132464129        2.59484171742898        0.03159680341764
C            1.10339042857065        1.43571182941874       -0.07690942559134
C           -0.25574748409405        1.53647060288451       -0.30428469246881
C           -1.32337368590594        0.65949449676218       -0.21101616152040
H           -5.46749654561235       -0.49832992892107        0.45033525793694
H           -5.31044976380049        1.13901226759889       -0.10152931507631
H           -3.22647091484489       -1.95728737087144        0.68458368269158
H            2.11746927366588       -3.52924402585727       -0.71646823932657
H            0.47358285619296       -3.99768235484128       -0.50294195863618
H            4.22438677649812        0.41647269746981        0.41986098689585
H            4.93453078029190        3.03482312332751        0.61888230237892
H            3.67362023421933        4.21848353605202        0.42529670456782
H           -0.55093964175495        2.56785788987683       -0.47463595851213
