29
 energy: -55.952652666789 gnorm: 0.000683053417 xtb: 6.6.1 (8d0f1dd)
N           -0.64926982152981        4.53063970148038        0.15451685429137
C           -0.75462855489975        3.38897099736426        0.08023670988283
C           -0.98983766701715        2.01409572412797        0.00958654499153
C           -0.02233915954312        0.98998436748116       -0.14736384514131
N            1.21131832019666        1.32111738786900       -0.38175433274107
C            2.37466354822943        0.76206532755582       -0.31505007647209
N            3.45641330445612        1.48219253146719       -0.63240743988264
C            4.52659687222305        0.80178303060113       -0.21150635506086
C            4.20805675550175       -0.41789313637805        0.36759371712598
C            2.81155038180938       -0.56561049012270        0.25281997216288
C            2.17818690791745       -1.77473977790708        0.39348183769664
C            0.90555090671795       -2.29031659617182        0.06730507854021
N            0.85510561549386       -3.65286883281017        0.09801687334547
C           -0.32042269940259       -1.63836384589623       -0.22446156511397
C           -1.34594577845592       -2.54125652713451       -0.61310192225353
N           -2.09125492875380       -3.30841221196696       -1.03245955330307
C           -0.75761512015444       -0.30503168630519       -0.13874049513599
C           -2.12204996470163        0.02219131393037       -0.03397000909213
C           -3.24773570318184       -0.79984659485151        0.07254050097603
N           -4.25055972741913       -1.34135345796173        0.22589019716694
C           -2.27037621222039        1.43456279700267        0.09781242169703
N           -3.42668115436288        2.07832726122074        0.27800537916887
H            5.50809075156795        1.22229420847028       -0.34220709337388
H            4.89242631924566       -1.13289511360231        0.78195731307954
H            2.86084216859948       -2.56421020829654        0.70237760409377
H            1.70069432077879       -4.18392678173495        0.20377032027823
H            0.01617732272208       -4.14227788897977       -0.16306010625940
H           -4.29131378586813        1.56383229453309        0.31107039658913
H           -3.43621373525238        3.07970276011156        0.37407956943622
