28
 energy: -51.455122965791 gnorm: 0.000545873970 xtb: 6.6.1 (8d0f1dd)
N            4.42011766777552        2.38990344546415       -0.00214606392876
C            3.58171911876196        1.60181609174781       -0.00216458872116
C            2.59939056152315        0.61248471458128        0.00095219495353
C            1.18825900041971        0.82549003759331       -0.00403630897734
C            0.69285829086522        2.11309047266674       -0.01493232108823
C           -0.58391220122238        2.70590502809713       -0.02332264477694
N           -1.81740849760377        2.30678881751049       -0.01715046716638
C           -2.41553258876501        1.12683804338210       -0.00613211870964
C           -3.80267281171254        1.06137052572110        0.00285990111090
C           -4.14715050628976       -0.30786135234421        0.00944128069353
N           -5.37991268278571       -0.83399762200175        0.00246217387956
N           -3.06172375114540       -1.09725763541360        0.00525930970629
C           -1.97520712239356       -0.30595820731509       -0.00259252360713
C           -0.75091778700535       -0.94406423407541       -0.00006304058159
C            0.56856292059802       -0.50816884524151        0.00097190763615
C            1.62266702126797       -1.44429870818495        0.00846445658132
C            1.50777476214324       -2.83445719606642        0.01572312343393
N            1.47049947297786       -3.98411138483590        0.02107470801010
C            2.87235547543761       -0.76520206042913        0.00852611771918
N            4.08095253020868       -1.34725394353432        0.01504314979275
H            1.48427420524184        2.85811563100310       -0.01855927222646
H           -0.53471505108393        3.79561040345179       -0.03608448050905
H           -4.47459433308607        1.89557434000624        0.00336588491471
H           -6.19015124117038       -0.24638719386285        0.07360477087427
H           -5.47613101271668       -1.83280809288959        0.05292322939592
H           -0.85867446944437       -2.02532208026654        0.00488110460318
H            4.15939301701367       -2.34925114494400        0.01881974314091
H            4.91306457509238       -0.78360918111955        0.01333524524997
