32
 energy: -64.725964800399 gnorm: 0.000847308453 xtb: 6.6.1 (8d0f1dd)
N           -1.83913206619892        4.51735025896412       -0.35841726639196
C           -1.38686641401219        3.46957980186240       -0.26418270877480
C           -0.75932846019723        2.19095075209940       -0.18036697117538
C            0.62446507888959        2.25912047451490       -0.30402450967736
C            1.67423263579654        1.35706862956371       -0.14771359456589
C            2.91860270326506        2.04636852106752       -0.26440121520053
N            3.86077104959808        2.67681603950698       -0.43038315648196
C            1.78163235614043       -0.03186604089093        0.04105168173039
C            3.02723331477108       -0.63455501797324        0.27736198269530
C            4.25158332278141       -0.07391845885083        0.65370364063014
N            5.29976207455463        0.21885040610365        1.02436086271041
C            2.90005080670638       -2.05528530063437        0.15374281420936
N            3.90034730038560       -2.92822893268160        0.31687564867055
C            1.57093532661695       -2.33145061383522       -0.16045045285393
C            0.82348888514482       -1.14268564522812       -0.16951317446233
C           -0.56939456867884       -1.20529738534819       -0.28745661409875
C           -1.03695561200870       -2.49216956692949       -0.68129389106458
N           -1.38734260898884       -3.50340751342772       -1.09319420205253
C           -1.61467558632634       -0.30296958302140       -0.01957454436846
C           -2.94244497804281       -0.71601776093208        0.19018719504171
C           -3.51835670481625       -1.97790611677790        0.32832691413609
N           -4.11603985600597       -2.94328320661186        0.51073825698034
C           -3.71061762943180        0.47750491104482        0.39162320538303
N           -5.01285448091186        0.54372942154885        0.66252773285346
N           -2.94597605269294        1.56255957008866        0.27195245100415
C           -1.68507649103503        1.16510022539215        0.04522280317232
H            0.97153770894733        3.27191067813695       -0.49568527121280
H            3.74014788183692       -3.91387778460549        0.20616234463038
H            4.81616955664396       -2.60096480467988        0.57593657411060
H            1.16841509449947       -3.31559918020697       -0.30590538031872
H           -5.43680823158440        1.44753306759295        0.78208812966808
H           -5.56390924094465       -0.29435429304981        0.73356461787323
