27
 energy: -57.315245239773 gnorm: 0.000479995633 xtb: 6.6.1 (8d0f1dd)
N            3.83593205409496       -3.32489464475043       -1.39644191808516
C            3.39242545253832       -2.33968671822546       -1.01074237741404
C            2.84295832498603       -1.13263829889087       -0.56290339663526
C            3.44588564015428        0.10633680426686       -0.55662854068708
C            2.55946997055089        1.07447947837402       -0.00806644191770
C            2.92726312320997        2.42030827849056        0.12496700367804
N            3.32350230131757        3.49240485352411        0.22937118608469
C            1.34235652342650        0.45662437061146        0.31730517925689
C            0.11371852313252        1.11130404990759        0.46006203230273
C            0.13403214366995        2.53540687633940        0.47374767516659
N            0.11306175191071        3.67799117183035        0.54033342260120
C           -1.19347908226019        0.61206000667565        0.33561976737703
N           -2.15630546413825        1.46600538948145       -0.01531636500904
C           -3.24620729081878        0.75477555083146       -0.34725061534604
N           -4.35355347303461        1.34485930934562       -0.78306422194314
C           -3.03888809759290       -0.64841123420556       -0.16379870476757
C           -3.99492911916320       -1.63581126061973       -0.39712220564601
N           -4.81838608838969       -2.40541664625824       -0.61832179810652
C           -1.74547560282090       -0.78282235696223        0.35443651795324
N           -1.30053164548138       -1.83728460489302        0.99169306429507
C           -0.11371727474379       -2.21216540054173        1.33052487680216
N            1.00088215156956       -2.01190207946064        0.66284774571643
C            1.57270384169328       -1.01135257371322        0.11194479920319
H            4.43502470251755        0.32749306923750       -0.91562444613026
H           -5.15490417114710        0.80085019800360       -1.05501491548663
H           -4.38015781172497        2.35008156404279       -0.82661261140265
H           -0.04825270185433       -2.94618429214746        2.12744845784013
