29
 energy: -51.963440822205 gnorm: 0.000630226811 xtb: 6.6.1 (8d0f1dd)
N            0.32891159529824        4.71892057321359       -0.33377029173757
C           -0.14527999435896        3.67954577704855       -0.20948047300816
C           -0.71098701585028        2.40851129840624       -0.07172261989915
C           -2.03346212778582        2.13550776291409        0.22716067183104
C           -2.19231495489994        0.73714113137731        0.26367057456841
C           -3.39622946084628        0.12632351798273        0.63947998711699
N           -4.38839712225773       -0.30577428501741        1.02431828637996
C           -0.94931943813564        0.10791420648436        0.01640429130866
C           -0.88377436613120       -1.28855618139991       -0.22033745245418
C           -2.12356092358775       -1.82536800447153       -0.65976306020844
N           -3.05629869891027       -2.29896799942743       -1.13402351633535
C            0.13084342061161       -2.25250358483634       -0.11133335929642
N           -0.23821529010588       -3.55477923113190       -0.30057363532136
C            1.48914919722011       -2.11193531498889        0.27706319241440
C            2.42386991094549       -1.11585603356798        0.26336322788192
C            3.79085465331587       -1.43128686822812        0.54534028683668
C            4.57773748192011       -0.33964161182113        0.27967321591232
C            3.74998078614412        0.71531998315198       -0.14266075231617
C            2.41727066596047        0.30202668738106       -0.13613971117741
C            1.39121795706174        1.22133898983008       -0.32632385103804
C            0.02523321813428        1.17423198462162       -0.15254242966926
H           -2.81112231449496        2.85457136281921        0.40671837517971
H            0.45832133394268       -4.27608471837716       -0.33770030330306
H           -1.17238871882272       -3.78022397391229       -0.59649257010265
H            1.91213412131867       -3.07084488094192        0.56908514313000
H            4.13003151065668       -2.39589030907413        0.87567900597047
H            5.64635733967217       -0.28778818056703        0.37844603048177
H            4.08381931909062        1.70348864147349       -0.40154172182511
H            1.75928198129535        2.22154779226111       -0.54247360261973
