27
 energy: -56.527824745603 gnorm: 0.000835418754 xtb: 6.6.1 (8d0f1dd)
N            0.38810872666758        4.24934481025680       -2.02189560127828
C            0.67290139820880        3.32002088879710       -1.41054233331753
C            1.05809311391791        2.18574253925984       -0.68934087260709
C            2.29492018648288        2.01531078106121       -0.03826708379566
C            2.33094126355069        0.79235150279589        0.62028504965096
C            3.38731074810767        0.33558340828052        1.41295224886460
N            4.25910488030724        0.00918222910121        2.08590324453769
C            1.13698211138643        0.07253122356985        0.27359932265972
C            1.07342182018573       -1.28736506158017        0.17184135785201
C            2.14057284247069       -2.09263692411624        0.63003541997577
N            2.95708455192629       -2.83499880205793        0.94586611267293
C            0.05877569730791       -2.07231468592635       -0.56435918508249
N            0.55106708821505       -2.98172659866157       -1.42292608600161
N           -1.21356049421452       -2.04465134565519       -0.38864624267902
C           -2.10271705653370       -1.17382886571528       -0.00487756990851
N           -3.29195066214856       -1.48306135004053        0.46480849543035
C           -3.92836023963349       -0.28758211128104        0.60122228073623
N           -5.17007379104167       -0.21371351117804        1.05592179828289
N           -3.22512629773517        0.80491221530149        0.25731929078451
C           -2.03756440836840        0.34560002871649       -0.12301990597648
N           -1.06301714226409        1.12839747664113       -0.46783550317817
C            0.22837314613068        1.07884396569082       -0.39279932195238
H            3.08891160899847        2.74085539205003       -0.03412288371420
H           -0.09603896318278       -3.60486559238590       -1.87874078666367
H            1.53402217243429       -3.19818458663122       -1.44184571615258
H           -5.65619996403670       -1.05896690175042        1.29967876988937
H           -5.61346139353928        0.68566334605630        1.12697946517132
