31
 energy: -55.421039272183 gnorm: 0.000454731195 xtb: 6.6.1 (8d0f1dd)
N            5.41899815794558        0.71431500716145        0.05487997334701
C            4.40852520289639        0.16520409775131        0.04347463683518
C            3.16773737329958       -0.47541011561830        0.02648130572534
C            2.96308931862015       -1.84947375021199        0.01329375652700
C            1.58410801219385       -2.08343640756770       -0.00709504376150
C            0.99416289732224       -3.35124173096200       -0.02695805076212
N            0.52543901213366       -4.40025672773131       -0.04325715505425
C            0.88405708339723       -0.84358495603157       -0.00545284420011
C           -0.50168815759147       -0.83891226659359       -0.01715812690459
C           -1.47848636899082        0.14081557129224       -0.00991337836736
C           -2.84260130530762       -0.23812820623294       -0.01105420562431
C           -3.35801697817953       -1.53331558188311       -0.01808980659509
N           -3.84704136937001       -2.57470125145967       -0.01913510527392
C           -3.65876622640915        0.92432471268372        0.00733743996919
N           -5.00622922661985        0.92429933996475       -0.01570832140773
C           -2.80828727982562        2.02833208862146        0.01495314953131
C           -1.46510895647088        1.61311389675987        0.00419782858589
C           -0.46568395633417        2.57398852661890       -0.00120890483430
C            0.93146446662271        2.60415154026941       -0.00288865608845
N            1.47204401205791        3.86720110919764        0.03102875835066
C            1.89444040132193        1.58038713658508        0.01317236151910
C            1.90184086079558        0.20336398606235        0.01428172236306
H            3.72862091957760       -2.60377462108443        0.01746094106499
H           -0.92024932953385       -1.84423562703100       -0.02974699766139
H           -5.51271376491445        1.78272190230974        0.10410565688129
H           -5.50219266114411        0.05377721410962        0.06598735826383
H           -3.13313721896685        3.05271602821920        0.02826510147108
H           -0.88797245377788        3.57646595322305        0.00096199102024
H            0.88496576095827        4.66553575944557       -0.13248439207643
H            2.45878429678156        3.98801956339525       -0.11336970975366
H            2.90567009911184        1.98322917553660        0.02782204371011
