31
 energy: -60.201588148368 gnorm: 0.000622649391 xtb: 6.6.1 (8d0f1dd)
N            2.90829553672957       -3.21400448426549       -0.11591414771216
C            2.23709159742964       -2.28641902171956       -0.06934431521680
C            1.29884681319415       -1.21200987063069       -0.04023259257239
C            0.00006108597363       -1.72483937072287       -0.07064131460280
C           -1.29875837561817       -1.21202813571545       -0.04160779446425
C           -2.23694260353438       -2.28644718888141       -0.07180496836880
N           -2.90813477343633       -3.21396992420002       -0.11951332556538
C           -1.85052284346860        0.07422915977881       -0.00991957489898
C           -3.23404752422554        0.30381334329015        0.04911558509631
C           -4.31112218390824       -0.57851930040785        0.16728942667595
N           -5.30571086865256       -1.14473082423925        0.28321236057037
C           -3.48980140318425        1.71336732923747        0.00314659684829
N           -4.71381125129521        2.25821150616571        0.03583724323141
C           -2.26434104789900        2.36722941366860       -0.08091759588332
C           -1.21983075835663        1.42880335850596       -0.07556967512091
N            0.00007082781922        1.88810507318526       -0.11230295600755
C            1.21993167625862        1.42880267774925       -0.07451547957055
C            2.26444184312653        2.36724310601130       -0.07905250878109
C            3.48981535570851        1.71338444572981        0.00616111437353
N            4.71379128117689        2.25823851964307        0.03986048669748
C            3.23403894069329        0.30382760189316        0.05204953445772
C            4.31108632719758       -0.57847367083345        0.17075409147350
N            5.30561866068264       -1.14460379168242        0.28753046764514
C            1.85057230993426        0.07424658118156       -0.00813462103383
H            0.00008726827948       -2.81246115433207       -0.11117750851159
H           -4.83100000335155        3.25502013735054        0.00884166457496
H           -5.52328342600940        1.66510687209774        0.11244829787547
H           -2.11130747651393        3.42751998380285       -0.12943513178845
H            2.11143112798897        3.42752335085007       -0.12786133118297
H            4.83099691327786        3.25504079561505        0.01275347053067
H            5.52319454498140        1.66514163067588        0.11723751403135
