25
 energy: -47.491582979150 gnorm: 0.000632084265 xtb: 6.6.1 (8d0f1dd)
N            0.53628047682705       -3.72237313983988       -0.03813791709564
C            0.27620391004171       -2.60690884386145       -0.02363049970052
C           -0.03460886518588       -1.21801099749724       -0.00930609476639
C           -1.39867742043628       -0.93968022475732        0.00079376453458
N           -2.26271705853775       -1.96362205849945        0.00375585541875
C           -3.47365284471561       -1.40336020778237        0.01718719181483
N           -3.50456034380889       -0.08274652954016        0.02117419818146
C           -2.20530295313285        0.31016247938958        0.01106201586054
C           -1.97412604418235        1.66400583869268        0.00541002365361
C           -0.84602498377810        2.50448711475486       -0.00555495395708
N           -1.14473873585681        3.83391729080462       -0.01134371910411
C            0.52193969101625        2.21552278867069       -0.00338370368929
C            1.30983361630303        1.08013888053393        0.00196376416488
N            2.64042890402090        1.27260162323142        0.00656419873133
C            3.18183126532356        0.04690555894242        0.00500641979751
N            4.49520617863076       -0.17204989736012        0.01153456964597
N            2.29489613920781       -0.96996970234079       -0.00263973429042
C            1.09468768417175       -0.39351981055305       -0.00331561412596
H           -4.36906007812465       -1.99739642087773        0.02374092478790
H           -2.91650561791977        2.20524301677139        0.01003298613655
H           -2.09925187677099        4.14386776029844       -0.03068706231902
H           -0.41478173342249        4.52240973987915       -0.03832549134354
H            1.15155187569493        3.10109409269839       -0.00512376790404
H            4.82686454584385       -1.11962795120424        0.00531063201593
H            5.13047331949062        0.60458960024594        0.01351472605228
