26
 energy: -52.786411826034 gnorm: 0.000983554250 xtb: 6.6.1 (8d0f1dd)
N            4.77912657050639        1.39062515671655        0.00022624186913
C            3.70247268581256        1.00149060148593       -0.00001945628729
C            2.33107978633240        0.60270317033785        0.00043600733004
C            1.45326121253942        1.68540521556065       -0.00026110224031
C            0.06703727430106        1.81299827477532       -0.00023107318944
C           -0.36815412663849        3.17255360642834       -0.00082989936650
N           -0.66321395507864        4.27886698046961       -0.00209447655249
C           -1.01111329571451        0.91361713963530        0.00040428542260
N           -2.23023163918760        1.46025016419381        0.00030631034128
C           -3.14405423226860        0.47802554718296        0.00067102438367
N           -4.44944036039874        0.73763378762603        0.00055107796115
C           -2.52239644865958       -0.80326088292135        0.00085575685863
C           -3.19907338751905       -2.02079164178453       -0.00016542277149
N           -3.81448092387314       -2.99113296562931        0.00476220472142
C           -1.12901981327895       -0.57322658537847        0.00116032753797
N           -0.30267279752284       -1.58663269299539        0.00150559210765
C            0.98839653783807       -1.71695389991947        0.00166585142355
C            1.57564068295072       -3.00406324947887        0.00232207812474
C            2.94378675071524       -2.81771385216312        0.00242553976528
N            3.28900274992962       -1.51792212552715        0.00181761064239
C            2.17376535326426       -0.78872868486558        0.00132039491649
H            1.96460618163899        2.64491840378869       -0.00088143000238
H           -4.75100012017639        1.69731591582369        0.00019784101680
H           -5.12253987497534       -0.00925425609886        0.00080839236478
H            1.03250582903545       -3.92695570558679        0.00272552544037
H            3.71446323252761       -3.56723290477582        0.00292225548194
