37
 energy: -64.139597332707 gnorm: 0.000732711420 xtb: 6.6.1 (8d0f1dd)
N           -0.01369812778852        4.53946197820540        0.13280024533042
C            0.00284801074229        3.38553969803587        0.09556480303661
C            0.02030458792165        1.98410126300009        0.05151597688099
C           -1.12076448308623        1.41697709811504       -0.57622773621148
N           -1.81736786652540        2.25291449522257       -1.39093273585058
C           -1.74807333578408        0.19623031964028       -0.26279152032140
C           -3.16218894155509        0.09300702158499       -0.20795022805023
N           -4.11611840383061        1.04130937455622       -0.53422645363664
N           -3.56926030698717       -1.07838558555270        0.29355037378835
C           -2.46527429290861       -1.79330507958688        0.52899740880259
N           -2.60096772978866       -3.08457532178703        1.02517640419731
C           -1.27444164943546       -1.09220157873027        0.20978464661841
C           -0.01756457531405       -1.72090465602649        0.08797796184624
N           -0.00959610306520       -3.07031686518162        0.20943667588657
C            1.24198727258673       -1.12080616880703       -0.13950469802606
C            2.39290308867341       -1.85271129460880       -0.52539426552068
N            2.46595212989242       -3.16153021068558       -0.99910903667032
N            3.52087002017730       -1.14623091958160       -0.41367225404915
C            3.17141955025895        0.04508650198966        0.08722007642933
N            4.15905488146077        0.98798121708621        0.31814872130240
C            1.76985141130378        0.17141060376531        0.24952147651928
C            1.18116841439455        1.40017800384129        0.61184687658175
N            1.93787610044286        2.21044376997018        1.39731768431713
H           -1.45977220427060        3.16942090929085       -1.59846810331559
H           -2.59916179393238        1.89526264851158       -1.91028586894254
H           -5.02251677706666        0.75456809016489       -0.18723846895218
H           -3.88333992214961        1.98761764253662       -0.26111485314063
H           -3.57628234485811       -3.27060395894771        1.22578541702343
H           -2.01124686753650       -3.27854000067434        1.82558326852863
H           -0.87453392222629       -3.57846357704281        0.12254520928507
H            0.87087942754349       -3.55465566325395        0.14969025889027
H            3.41480977657866       -3.36087558487481       -1.29195470528169
H            1.80373443506920       -3.36327096966706       -1.73870501475192
H            5.03032508333826        0.69130275843288       -0.10201895241526
H            3.91035951644961        1.93440479916301        0.05978511296154
H            2.75295528327406        1.83591936538714        1.84817960522760
H            1.61973975820037        3.13572797290779        1.62847677338373
