32
 energy: -53.526032995234 gnorm: 0.000963081060 xtb: 6.6.1 (8d0f1dd)
N            4.88926871056500        1.30292928784407       -0.75138113301727
C            3.83729357113667        0.93190148218574       -0.46317050618838
C            2.56001046098083        0.48604614230683       -0.14117337707887
C            2.14048662851883       -0.85364217408450       -0.09731376051082
N            3.00534199872495       -1.91223947351733       -0.31079225730422
C            0.74565025824204       -0.89492732490146        0.15958015123783
C            0.08064393498543       -2.11812111968658        0.39676640208259
N            0.88594977245682       -3.15594551829897        0.77794200325011
C           -1.24973334278071       -2.51396434018125        0.13931098970870
C           -2.37893959081900       -1.87362838383827       -0.29286973076007
C           -2.77368558583821       -0.53561821543873       -0.35607626652025
C           -4.07195365514664       -0.18420973320992       -0.78642286291594
N           -4.33232772156273        1.10793237500343       -0.63076115160633
C           -3.24883716402069        1.63747518568755       -0.05560461592667
C           -2.22144028106127        0.69750174751670        0.14419827484752
C           -0.94549887309280        1.06633298796898        0.63109003218335
N           -0.89987645898998        2.19930259693690        1.36233849551479
C            0.30832112723261        0.49203047703050        0.30329097933538
C            1.44877273005185        1.30498186104832        0.14841428541205
N            1.53363422454374        2.68873779379330        0.20652250574630
H            2.59987690814116       -2.71487010504200       -0.77200422474824
H            3.88326456978632       -1.62347229666178       -0.72244613592963
H            0.45321614323813       -4.02710932365304        1.03382105267372
H            1.78437173917262       -2.94985926948700        1.18160848131410
H           -1.37021012559785       -3.59067965409477        0.22787890300323
H           -3.17572294534687       -2.54813062283999       -0.59398449302326
H           -4.80880801688597       -0.84804702879208       -1.20253499442785
H           -3.22039513688038        2.69939701451150        0.12242771958229
H           -0.02417638440999        2.52752505885102        1.73150844826847
H           -1.74874554041921        2.68656332628387        1.58562952602951
H            2.40294483896636        3.03705598096160       -0.17751240270395
H            0.73213663150871        3.18280061829680       -0.16109284842844
