26
 energy: -52.009364789896 gnorm: 0.000360662086 xtb: 6.6.1 (8d0f1dd)
N            3.84355764738420       -2.21159678292930       -1.70097581251731
C            3.13304763072717       -1.50141018768719       -1.14103464811195
C            2.30720906107749       -0.59182327464137       -0.48352180166983
C            1.03773095917263       -0.84861169316331        0.09216701587468
N            0.60615901585331       -1.99113278513226        0.47219977006777
C           -0.48302417557882       -2.42341230848935        1.07481898278863
N           -1.72185275214263       -2.21208660575948        0.76503736344894
C           -2.33366780179844       -1.16399250014229        0.28550961655923
C           -3.59780372450828       -1.12473507590746       -0.27084711482398
C           -3.92979177554613        0.23759010411220       -0.41435070390150
N           -5.07541108941361        0.74927499578656       -0.86683624424426
N           -2.92548437322374        1.06771332720825       -0.04479412083975
C           -1.90701643897060        0.31865755270675        0.34413982652899
N           -0.75920077686197        0.88686500167481        0.57852339356926
C            0.47948223948196        0.51399582887321        0.51519098246266
C            1.57748051735218        1.38455315275964        0.49931722314222
C            1.62366295999487        2.71265431632660        0.91947447976207
N            1.73946417539848        3.80526955382553        1.25908420817458
C            2.67270926600575        0.72907990776100       -0.15149205036009
N            3.85015051743588        1.30250951664404       -0.40730721827715
H           -0.30576016229648       -3.22078272720181        1.79233928092171
H           -4.22689361782603       -1.96252982346935       -0.49366335316101
H           -5.82958037667147        0.15601400532646       -1.16234336889784
H           -5.17610250447946        1.74945157980158       -0.88840476370989
H            4.03148833402793        2.24279055272421       -0.09772442365205
H            4.55781490530453        0.79952368559024       -0.91607194393505
