27
 energy: -51.724082344454 gnorm: 0.000813176638 xtb: 6.6.1 (8d0f1dd)
N           -2.96157460747124        3.37336359947962        0.00700206878595
C           -2.19889435162952        2.51666933373002        0.00473391733855
C           -1.24230309871813        1.46241023043351        0.00195981788861
C            0.05292848769882        1.93695241073182       -0.00054268751319
C            1.32740951124856        1.34446500295519       -0.00384184768307
C            2.37723337778157        2.30790402523835       -0.00759760370200
N            3.17645028366103        3.12936215911031       -0.00522038731541
C            1.79446900478608        0.03562809222376       -0.00578068343658
N            3.12885804766689       -0.12660572374258       -0.00913418193689
C            3.38209425801369       -1.44083414458298       -0.01036656294982
N            4.63743423044373       -1.89843767280436       -0.01357056406845
C            2.18908860277278       -2.20909920884089       -0.00789547485331
C            1.13454197723349       -1.31278449928949       -0.00500985449671
N           -0.10910287349740       -1.75589949218950       -0.00251042155284
C           -1.28506231351335       -1.23611399642210        0.00022191113011
N           -2.31681835950713       -2.11034988236109        0.00169894886838
C           -3.44332010162967       -1.41333774718538        0.00432378712750
N           -4.64314335932909       -2.00250537923322        0.00644614898470
C           -3.20316549924322       -0.00230742294787        0.00479745050861
C           -1.84131490032290        0.17392259021596        0.00225212904927
H            0.10743997973443        3.02356731262802        0.00003597572264
H            5.39024013070793       -1.23222169538217       -0.01515578822352
H            4.83015460075347       -2.88330232782084       -0.01465720200413
H            2.10934857508189       -3.27683927904150       -0.00825388733514
H           -4.68569852066899       -3.00633876672852        0.00529182826129
H           -5.48698491981213       -1.45911221098560        0.00749810455360
H           -3.96426662424160        0.75477656031156        0.00677027365183
