26
 energy: -52.011632394652 gnorm: 0.000503627537 xtb: 6.6.1 (8d0f1dd)
N           -1.66808728876851       -3.98370192582586        1.67176018928138
C           -1.71597578617103       -2.96491509641414        1.14253280870653
C           -1.78545894570632       -1.72269759863216        0.50932905575223
C           -2.85654697845277       -1.24281198832403       -0.24730755608742
C           -2.57883640482825        0.03332464772714       -0.76045739509214
C           -3.43057075968673        0.81301392217861       -1.54507677036381
N           -4.12852782234589        1.45300162829480       -2.19608407201367
C           -1.33196405714367        0.45299784422967       -0.23422474129979
N           -0.96451468019532        1.67490839649824       -0.07121130004074
C            0.09386861649271        2.24526114933236        0.48444149425508
N           -0.15572788843199        3.28281680530911        1.31012417511634
N            1.35881806706532        2.05305020080210        0.15049528010924
C            2.03271681388594        0.97141725948557       -0.04487089966112
N            3.28944389323427        1.01437882282552       -0.49265525171582
C            3.75889833688901       -0.23855339949940       -0.48938478588644
N            5.00591527608383       -0.50599320843552       -0.87499177455412
C            2.79472247705523       -1.19186404106868       -0.04372715919287
C            1.65151344131522       -0.48549597026525        0.25141411801216
N            0.51958173180697       -1.08386123238391        0.57989322689745
C           -0.71822047772629       -0.78018816083376        0.42020335437644
H           -3.77362258351082       -1.77981156733083       -0.41744556499124
H           -1.09915829009175        3.62120714244789        1.39176263562994
H            0.60871064906315        3.88833619581981        1.55520804654505
H            5.59544855937676        0.25661927995164       -1.16205035498624
H            5.36569261075638       -1.44350235898933       -0.85288416197682
H            2.92821744743283       -2.25311328749580        0.01790933748165
