27
 energy: -51.723971731785 gnorm: 0.000525468987 xtb: 6.6.1 (8d0f1dd)
N            4.37875069728334       -2.41864174078651        0.01679772476051
C            3.51460819756767       -1.66088987027596        0.01114060591791
C            2.52875528938429       -0.67146733471844        0.00611722504500
C            1.13796173831380       -0.86923496564976        0.00635666387563
N            0.68576283954572       -2.10359885303188        0.01263606236581
C           -0.49414966105954       -2.65936008974964        0.01372085472465
C           -1.82024095710640       -2.21322184779890        0.00688800012401
C           -2.41336803433540       -0.96514401494676       -0.00069067626119
N           -3.75653819814751       -0.92206592361780       -0.00408272601655
C           -4.12731796924773        0.36775990317129       -0.00982807524674
N           -5.41981019038358        0.71236819998916       -0.01402021128282
C           -3.01346606926639        1.24126975296479       -0.01104952864524
C           -1.88317938375322        0.43951923405515       -0.00527859520553
N           -0.68116673497289        0.98468859775078       -0.00542154360244
C            0.52339322557248        0.51176096955437       -0.00084572318892
C            1.61523978620196        1.42848516513398       -0.00393062422776
C            1.51802397794124        2.82068802585506       -0.01035998080848
N            1.49933886392563        3.97038923660438       -0.01585042080690
C            2.82876592944274        0.72277899896009        0.00023209352937
N            4.05959945076060        1.24756294027397       -0.00092608636119
H           -0.40174356022664       -3.74541131243344        0.02147768439288
H           -2.55537587189227       -3.00959463386624        0.00892718345873
H           -5.69680283689250        1.67686667601514       -0.01698422455445
H           -6.11410045321107       -0.01390455642427       -0.01151426295449
H           -3.02978041204018        2.31213667460766       -0.01544668740412
H            4.86522487234337        0.64529643117085        0.00247557700740
H            4.18266512745191        2.24577630359322       -0.00513946043500
