26
 energy: -52.026408067809 gnorm: 0.000712393291 xtb: 6.6.1 (8d0f1dd)
N            1.60045634943406        4.16840919746627        1.22710021449772
C            1.68595489760746        3.09801874588934        0.81757536905612
C            1.78722046361432        1.79197845181212        0.33128958060102
C            2.90110439136774        1.26035773851410       -0.34455288676150
C            2.64242119291433       -0.05172169751958       -0.71858977805283
C            3.51997739399506       -0.92214889760054       -1.37132155800972
N            4.24304030809238       -1.63194982222149       -1.91203158362835
C            1.36008739176526       -0.42504358178173       -0.19982969112585
N            1.01292560967588       -1.65514189957574       -0.06997919581295
C           -0.07068227383649       -2.26243692269929        0.40546165040969
N            0.15757664239656       -3.34423149807587        1.17534613069561
N           -1.30996842468050       -2.05533945856992        0.02768093483255
C           -1.99396242768164       -0.97104404113010       -0.17588443064445
N           -3.23670615216256       -1.00815090188289       -0.65644714471102
C           -3.73050582126307        0.21533433034597       -0.42554040319745
N           -4.97566536568705        0.55736966018922       -0.73690822768365
N           -2.87776304000660        1.10280070243335        0.15228073171641
C           -1.73215424355145        0.44497770362609        0.28476127373648
C           -0.56446770858704        1.14043763668619        0.60563445888786
C            0.75424224516533        0.82434697219630        0.36607953409449
H            3.81304437600581        1.79543801917192       -0.54218434688856
H            1.10048015699717       -3.68012323718029        1.27252578237067
H           -0.61050380818332       -3.96683246873976        1.35885653206234
H           -5.57093423121280       -0.11486579246635       -1.18680418095104
H           -5.30333778387509        1.47957365647584       -0.51137795283100
H           -0.75175536510190        2.16947054863718        0.89677603793747
