24
 energy: -48.548455492262 gnorm: 0.000541863879 xtb: 6.6.1 (8d0f1dd)
N           -3.85141633513219       -2.51392995385802        0.00015438388549
C           -2.93442288836440       -1.82686871114861        0.00047049343289
C           -1.77326143963505       -0.99722190777958       -0.00007356082958
C           -0.60452623364640       -1.75872004082783        0.00004537147227
C            0.75442077327620       -1.46319845227431       -0.00003938873973
C            1.58714593838389       -2.62011672193892        0.00082519976740
N            2.21899855765987       -3.57528950503727       -0.00104518298439
C            1.49355144408659       -0.27114497040818       -0.00012793068981
N            2.82191441589008       -0.35916556719049       -0.00021503847463
C            3.26878758890719        0.91377400405621       -0.00065246494163
N            4.56041919593287        1.21301665458322       -0.00088179037629
N            2.30623802711496        1.85585406581732       -0.00082181661457
C            1.15316447985437        1.19622865569529       -0.00040260999580
N            0.04636397417392        1.89508639057403       -0.00022434704119
C           -1.21476471824217        1.64226222966880       -0.00009543207761
N           -2.04067966990187        2.70736164917436        0.00022541693213
C           -3.28364104216221        2.26440693353091        0.00009571628412
C           -3.36831695573901        0.86278453400521       -0.00013527380292
C           -2.06616424020798        0.37411924141537       -0.00024153018585
H           -0.79926964613077       -2.82909342340225        0.00020987999698
H            5.23827215122032        0.47092924283365       -0.00073892623879
H            4.83819401764098        2.17882570589219       -0.00114665952044
H           -4.10676754663178        2.95703648270696        0.00016487809098
H           -4.27320439574743        0.28592652511194       -0.00022833084902
