30
 energy: -60.484691806425 gnorm: 0.000830853077 xtb: 6.6.1 (8d0f1dd)
N            2.31440373717594       -4.15709610872350        0.09181342435976
C            1.77220546094922       -3.14908403492078        0.05452733370976
C            1.04050771081098       -1.92593218298339        0.00996507985360
C           -0.33856056636261       -2.11837843449665       -0.05355233249610
C           -1.46525208811002       -1.29554530034320       -0.06264498817775
C           -2.64220568971323       -2.09676413311478       -0.15653145260652
N           -3.52499160861378       -2.81986611966422       -0.25956695215418
C           -1.68172866870412        0.09192055981296       -0.00931823144041
C           -2.96320922564719        0.64681417961527        0.04686350754511
C           -4.22516397487813        0.05259076030589        0.14924028950155
N           -5.32927240564208       -0.25027711827324        0.25839269064339
C           -2.87514952562245        2.08442969831584        0.02772337949406
N           -3.93473093306132        2.89884061215620        0.07474485832512
C           -1.53177373491278        2.42771063463444       -0.04426168490951
C           -0.74082298473127        1.26647228469029       -0.04805254398087
N            0.54897078251593        1.42382774216011       -0.07250075762126
C            1.60912992695960        0.66133606912390       -0.03819780138890
C            2.89677126632887        1.23937748325367       -0.02805696013615
C            3.23970966192025        2.58715724102611       -0.07213926888490
N            3.58002130494416        3.68483055963280       -0.10858560233456
C            3.82184975954579        0.15777018502921        0.04231768876124
N            5.15097263968473        0.24352444935436        0.08057263593244
N            3.19228182036574       -1.02501504277301        0.06967092879869
C            1.87367467759704       -0.80213492245321        0.01902546004360
H           -0.60044680149849       -3.17358724673095       -0.09174534764822
H           -3.81206911578677        3.89586853297939        0.06380660069695
H           -4.86261261450364        2.51323774802044        0.13941269905140
H           -1.12406844199280        3.41893049210203       -0.07548632427522
H            5.68807537383451       -0.60521386698398        0.13038112773378
H            5.60864066654779        1.13807701424807        0.05558268470405
