28
 energy: -53.035462333439 gnorm: 0.000913328737 xtb: 6.6.1 (8d0f1dd)
N            5.41066984534208       -0.78474249180285       -0.01437452537198
C            4.35642101068576       -0.33093550309654       -0.02753271687638
C            3.06588277247184        0.21372613698006       -0.03943697556207
C            2.76355827076146        1.55944910400926       -0.23130672768899
C            1.37644175243772        1.70622909630685       -0.14195447549679
C            0.74917850232961        2.93651478269385       -0.39615838420207
N            0.33207359590535        3.96738941553167       -0.67835371521122
C            0.77257976154974        0.43053952420858        0.06304099376220
C           -0.62039630878313        0.31504570130532        0.20977494586429
C           -1.22878436598733        1.51631628740791        0.68312952502568
N           -1.66356321766748        2.40021084068655        1.26885963115060
C           -1.51726302304211       -0.73916488983618        0.02462125539305
C           -2.90731726722329       -0.49158018894173       -0.16957473969147
C           -3.57969971004084        0.73353213451089       -0.28966221342508
N           -4.22261711254614        1.66923043725393       -0.45912530545894
C           -3.56716295022203       -1.70979786074062       -0.39477760318067
C           -2.64023947543110       -2.72839678822480       -0.29902228703445
C           -1.35517306870760       -2.19638604336193       -0.05238405987529
C           -0.30289231670786       -3.07318676774563        0.17723336767800
C            1.05972547034376       -2.95725456004866        0.40992917350349
C            1.95417505263141       -1.90192907733559        0.35832978514554
C            1.86063480970627       -0.53508832928073        0.11686404049358
H            3.46612152126007        2.35019319418452       -0.41776682676452
H           -4.61588666544832       -1.80848876138988       -0.60456418591933
H           -2.85300730919040       -3.77691901635896       -0.39828797576778
H           -0.63625340531185       -4.10671153982330        0.15964530902132
H            1.54026124426077       -3.90922099416418        0.60347794727182
H            2.98699116492120       -2.21701880842913        0.48259403801870
