31
 energy: -65.003248880897 gnorm: 0.000742308260 xtb: 6.6.1 (8d0f1dd)
N            3.59002329174017        3.57109109571224        1.59895055831041
C            3.30937230987035        2.53243597424222        1.19885718525723
C            2.94977104545681        1.27326363627012        0.70794388479903
C            3.74896565375996        0.15003564966285        0.60434194136099
C            3.01404204740511       -0.90816394327748        0.01439303326566
C            3.59017457334867       -2.16241940441884       -0.22486972946944
N            4.15567608836203       -3.14599911965973       -0.40020666408815
C            1.69138868947441       -0.47992290877711       -0.21031566705255
C            0.59379224339377       -1.31007212574946       -0.43235608233437
C            0.86544602208854       -2.67683403368389       -0.73219985211504
N            1.05784059590647       -3.76098301569643       -1.04621200846202
C           -0.77811296568125       -1.10291324488787       -0.19446354666896
N           -1.49379226753440       -2.21923445000328       -0.02466343121672
C           -2.73148552811420       -1.87862468140657        0.36110859435320
N           -3.65217982950303       -2.79269121579173        0.65502373282843
C           -2.88413570159945       -0.46130208039389        0.40138161642080
C           -4.07126509237098        0.16062636948214        0.78587103931151
N           -5.08400756005192        0.56305992769490        1.15121301872951
C           -1.64981537432092        0.08423966687696        0.00253187447726
C           -1.49088919027203        1.41498647267500       -0.38966630987842
C           -2.64710093188879        2.22454913853087       -0.45058290904703
N           -3.54143240827004        2.93475132955158       -0.57110375644310
C           -0.29934317731178        2.09007420345276       -0.80093209425101
N           -0.40402117089074        3.13620548002492       -1.64371693575965
N            0.88163474502621        1.89777177749119       -0.27621901045650
C            1.67696998017104        0.96967968604584        0.11213402527500
H            4.77473616933755        0.07640512297196        0.91757463366935
H           -3.41081722098372       -3.76567452733859        0.57270109836993
H           -4.56612723784079       -2.51678171472107        0.97137661724949
H           -1.31009340002755        3.48326276155393       -1.91262358982774
H            0.40246818099739        3.72211332407867       -1.78440545710516
