31
 energy: -60.215230802128 gnorm: 0.000478361882 xtb: 6.6.1 (8d0f1dd)
N            3.68010785965762        3.46077689971740       -0.15936759973665
C            2.89893690009969        2.62445367788907       -0.09303942655359
C            1.90908975383919        1.60274426267937       -0.01756811967199
C            0.63450104059309        2.13185683882476        0.09176411860171
C           -0.67952623913722        1.63802092796452        0.11547215894288
C           -1.57846547114355        2.73537544493303        0.26888647554951
N           -2.20005749841946        3.68111795034947        0.45032161367851
C           -1.27998511162043        0.37859306208472        0.02848863695288
C           -2.68660577249783        0.24006133407217       -0.07202384080477
C           -3.69194575443794        1.19675231398997       -0.24704635714051
N           -4.63167318668184        1.83329545578865       -0.43091001146523
C           -3.03290631432123       -1.13134280228915       -0.05023564977534
N           -4.26933845957874       -1.63404688942027       -0.13358274742735
C           -1.82954306936623       -1.86859522606073        0.07212414166059
C           -1.78616147369707       -3.26238118800221        0.13462272756699
N           -1.80616219533157       -4.41080426795468        0.18567194570103
C           -0.72715542817057       -0.98502748874676        0.09205527177444
C            0.55130606355801       -1.52217781609313        0.15639364094222
C            1.84486131769815       -1.04128566132985        0.08408865797604
N            2.81391551327024       -1.97262341022249        0.08835141747384
C            3.98919535251985       -1.34199380455102       -0.04214367571403
N            5.14251659433115       -2.01767210900645       -0.08044333728850
C            3.81799078628218        0.06209272840470       -0.12431811463922
C            2.45614545201309        0.30159054622270       -0.03753373787741
H            0.64971758115822        3.21910102133429        0.14704034377411
H           -4.41699110813988       -2.62856555597924       -0.11849045639561
H           -5.05537855728924       -1.01370655652383       -0.23516926865859
H            0.55423928759017       -2.60679923356737        0.22828435837385
H            5.11782092139804       -3.01966710650483       -0.01086665462241
H            6.01801812448777       -1.53956431834906       -0.19033704465106
H            4.60090014353643        0.78787642894633       -0.22518754354658
