31
 energy: -54.616376029660 gnorm: 0.000799613281 xtb: 6.6.1 (8d0f1dd)
N            4.90685455878525        1.42802655953549       -0.04143750314121
C            3.97191152603726        0.75400503807855       -0.04019557588239
C            2.85825141906006       -0.07775326363753       -0.02918115647064
C            2.90654792631266       -1.48175131634603        0.00233945937549
N            4.02021555542367       -2.24058593333353       -0.01507924199607
C            1.58050278714105       -1.95320956138243        0.01943546944135
C            0.68832069591374       -0.88547405658716        0.00030847121861
C           -0.70247156395763       -1.10912808154535        0.00063990459005
C           -1.06976420737207       -2.48645097037457        0.01971621199234
N           -1.32684538757382       -3.60405830684172        0.04139016929841
C           -1.82937109170166       -0.29453362901970       -0.01292965839827
N           -3.01128460007054       -0.94159901268197       -0.01316845540936
C           -3.98098868884287       -0.01967979432424       -0.01386414599317
N           -5.27745971619705       -0.38130656577187       -0.05847963602256
C           -3.45205167957157        1.28602730184563       -0.00849569589341
C           -2.06355055610908        1.16734157001801       -0.01270819304184
C           -1.24900116816400        2.29731126368989       -0.00962602505849
C            0.11403898598439        2.55329371242040       -0.03145132096821
N            0.44959244464742        3.88968300208525       -0.09308077188482
C            1.23726644640951        1.69830413400489       -0.04766745414785
C            1.49128595962623        0.35067660633845       -0.02927559539472
H            4.92220528999782       -1.80426931087219        0.06075656798615
H            3.94956521504914       -3.23388906831740        0.11287714121127
H            1.30647760110509       -2.99121022030453        0.04276359860059
H           -5.48603787279718       -1.35839249723548        0.05095108421226
H           -5.99722373230380        0.29520146179987        0.11888851014989
H           -4.01808976991248        2.19787364302117       -0.00741353379722
H           -1.84258522700538        3.20882248990722       -0.00060140517166
H            1.40007891423787        4.16141083167399        0.08669103067122
H           -0.25777636059210        4.57614681683824        0.10153483163335
H            2.16313189514001        2.27057129311913       -0.07573290820935
