33
 energy: -69.240765999752 gnorm: 0.000880161907 xtb: 6.6.1 (8d0f1dd)
N            4.44737000045665        2.76940183002677        1.72036250881156
C            3.92157690102979        1.83814222474048        1.30309569128336
C            3.26727715918549        0.71357182901074        0.79059809351417
C            3.74626534968048       -0.58949719211697        0.74262824664425
C            2.80418364288683       -1.42146172435943        0.10298071182021
C            3.01754633598071       -2.79476614853454       -0.07104640224404
N            3.27413291117227       -3.90907901742132       -0.17196208255288
C            1.64998735779877       -0.65868423622179       -0.19401979502296
C            0.39314295142683       -1.18330374448414       -0.49032284580838
C            0.39526372169202       -2.50951159892411       -1.00471417079878
N            0.39989121866820       -3.49769251751495       -1.58474707334519
C           -0.89115557513944       -0.66101472116940       -0.21845008205844
C           -1.96404438685033       -1.52893016743785        0.05566787739107
C           -2.00730528641141       -2.92655129151228        0.10742332144955
N           -2.19292548199455       -4.05334867376523        0.23451413446282
C           -3.09777004557704       -0.77108878860108        0.48025844358385
N           -4.26415925669447       -1.27889844334354        0.88104192359834
C           -2.74909897205271        0.59150729141361        0.40627050548544
C           -3.63698523395101        1.60108377920162        0.79146510862327
N           -4.43196053747770        2.33362345142380        1.18011458266875
C           -1.41517803342622        0.71115749092604       -0.06105530538538
C           -0.91707553628018        1.92244913088007       -0.52957454244120
C           -1.81120098561291        3.00944505360252       -0.66049676523559
N           -2.46772462480007        3.92807381748614       -0.86934317067218
C            0.42004569449890        2.25522322789353       -0.94479223590624
N            0.58755712331874        3.22198972614160       -1.86489618559127
N            1.49720016957818        1.82864928059663       -0.35058619539548
C            2.00004858012134        0.74254860295824        0.12929512689676
H            4.69212565523702       -0.92390978673483        1.12865545895239
H           -4.40397703749709       -2.27597377458677        0.89324859153656
H           -4.99786835968276       -0.66820628668252        1.20043183853854
H            1.51659005303681        3.57686131387254       -2.02360857204688
H           -0.20018753481316        3.75433536753003       -2.19665967735877
