32
 energy: -59.137208875544 gnorm: 0.000616630363 xtb: 6.6.1 (8d0f1dd)
N           -4.69779558061929       -2.24662210239498        0.17659778121445
C           -3.95249183307354       -1.36958444080585        0.12263023597738
C           -3.07656754268000       -0.29112174473789        0.05993695543714
C           -3.48402995312681        1.06615960214754        0.03977714428862
N           -4.75673296673447        1.49918813068180        0.07319368058852
C           -2.33144117065001        1.85159060266580       -0.03353298386638
C           -1.19030415223774        1.03739833217999       -0.04646013306959
C            0.08785048564139        1.60262056316887       -0.08939928421631
C            0.06908844963430        3.02203297432153       -0.18243095749122
N            0.06420783736237        4.16649324893289       -0.27152245256525
C            1.39868812278067        1.09628179144783       -0.03009131779252
C            2.51146831924038        1.93462999884091        0.00581160323988
C            3.65026730753915        1.10836319568660        0.08277292274988
N            4.93310931958819        1.48854600761613        0.15020239733193
N            3.31216061145913       -0.18957648924826        0.08133099645215
C            1.97391797182887       -0.26921678574355        0.01284756712713
C            1.48602301816900       -1.57584936240481       -0.03589116709905
C            2.57206790566921       -2.49723092428457       -0.02529367243762
N            3.39376678187337       -3.29962237815072       -0.02104061786305
C            0.20538100873126       -2.17754040645532       -0.08210205876726
N            0.20358231735277       -3.53836257315121       -0.16981739369876
C           -1.07629695602871       -1.61287194413212       -0.03240025622778
C           -1.65999879144084       -0.36318497873246        0.00277313658423
H           -4.95594216897388        2.48277343769157        0.09428027232808
H           -5.51052992006257        0.84175137162363        0.16724276285075
H           -2.32667062463359        2.92478495724637       -0.06283247528940
H            2.51457872761020        3.00631406166061       -0.00865959052642
H            5.18513370129029        2.45924532978221        0.15732363908508
H            5.64037660983213        0.77831413578280        0.21222549074596
H            1.06757927241652       -4.05199321602495       -0.16563003169971
H           -0.66269679475776       -4.04527891869028       -0.15335675112643
H           -1.83929723360606       -2.38998446822012       -0.02190733006060
