32
 energy: -64.724535659385 gnorm: 0.000883415014 xtb: 6.6.1 (8d0f1dd)
N            3.68582106130374        3.50344685213316        0.58474407549528
C            2.90882100137034        2.68720834246306        0.38193054879466
C            1.88755229825136        1.72628577854371        0.12416957275376
C            0.67115084224288        2.30850850963516       -0.24572335441079
C           -0.63007135583240        1.85029346791514       -0.35974895678793
C           -1.49937891975994        2.88928372992527       -0.80480370990448
N           -2.11768493867835        3.74152845755500       -1.25694264909884
C           -1.28008065072979        0.62112477825735       -0.09197335483708
C           -2.66604430700478        0.58304830814820        0.11678219674707
C           -3.57032758016672        1.62978708645133        0.32927707555527
N           -4.40492538952197        2.37854116237608        0.58031045549918
C           -3.09873949626796       -0.77336824492172        0.21847061606068
N           -4.34742044229586       -1.17677278760966        0.46628098830820
C           -1.97055754241085       -1.59013332393728        0.01772983485779
C           -2.07163140840677       -2.97970428742344        0.13931852922116
N           -2.30095329434814       -4.09282420065047        0.31133857422834
C           -0.81634557487131       -0.77212082884326       -0.13921047948171
C            0.43584601655758       -1.34622948517673       -0.35027611544367
C            0.40584205892715       -2.69766837495046       -0.79728666376124
N            0.45249448646989       -3.74132982794997       -1.27007907748730
C            1.75925798514825       -0.90320113621757       -0.12834431491884
C            2.83236559730155       -1.78153394903874       -0.07971889274741
C            3.96460039723738       -1.02624191572541        0.32382523989794
N            5.20217720354463       -1.47587599158217        0.53607047545817
N            3.65381971188287        0.26637166138857        0.48459111783023
C            2.35212784299907        0.41467005517918        0.20298241281791
H            0.76056447222865        3.37699889970898       -0.42787815045822
H           -4.55559455637235       -2.15934588688693        0.53028497388002
H           -5.07662371808300       -0.49988769141150        0.61754554141725
H            2.81708791050832       -2.83773549284223       -0.26151783581837
H            5.43993424857642       -2.43766860197582        0.37344460817005
H            5.90872120169984       -0.81975064642468        0.82123550716057
