28
 energy: -56.261691194545 gnorm: 0.000537744081 xtb: 6.6.1 (8d0f1dd)
N           -4.04395364129458        2.69044470771297       -0.00040097062569
C           -3.09127709894276        2.05443981012677        0.00142684289902
C           -1.87335862792920        1.31408437870834        0.00041542426172
C           -0.74250388910441        2.11254717579921        0.00016789188963
C            0.63562459468212        1.88210699057429       -0.00022178083508
C            1.38737107144651        3.09553195027796       -0.00014981506175
N            1.93400093142362        4.10210412510891       -0.00078830790536
C            1.46898543504554        0.75725144964693       -0.00052622855990
N            2.78369859434899        1.01842400061559       -0.00113602825870
C            3.44678908006077       -0.14256936744660       -0.00122325989247
N            4.77806326794028       -0.19568956011268       -0.00183921905900
C            2.54327552075087       -1.24707830850211       -0.00049478943759
C            2.92390664698330       -2.58597532340154        0.00012116333255
N            3.28378944050658       -3.67815758595033       -0.00127888089739
C            1.24271890488985       -0.70592928850319       -0.00019472450456
C            0.12217095095388       -1.52038803543211        0.00047411952512
C           -1.24056723213965       -1.28378962634358        0.00081674899916
N           -2.06103709000117       -2.34698814394320        0.00129986086011
C           -3.30133255574745       -1.84305005875895        0.00145400214443
N           -4.39593610217383       -2.59726674260615        0.00188670717787
N           -3.36549823191704       -0.49003420520615        0.00112733297081
C           -2.10389074026069       -0.07684378117299        0.00070022591519
H           -0.98095619864031        3.17415005740188        0.00022716977268
H            5.29488018386559        0.66681257602942       -0.00227413332106
H            5.25854306333822       -1.07851719443517       -0.00189211581380
H            0.34514646625576       -2.58370612680959        0.00070513825785
H           -5.29615669352322       -2.15196841733599        0.00193379768558
H           -4.30634051631759       -3.59737034514193        0.00213415018063
