30
 energy: -60.498367927881 gnorm: 0.000979046857 xtb: 6.6.1 (8d0f1dd)
N           -1.88350643580612        4.44690464311712        0.77081358145746
C           -2.04353242358259        3.34362006421667        0.49414406765114
C           -2.22953830912452        1.99738129770092        0.16656987830587
C           -3.39767139150287        1.43768108314001       -0.35288116574408
C           -3.20962710868775        0.06367739508440       -0.54191474503505
C           -4.16082710168882       -0.84919602273490       -1.00791650089059
N           -4.93908937960942       -1.60345437255080       -1.38721254068329
C           -1.90452783603186       -0.28458131272603       -0.10116389424985
N           -1.56975410376602       -1.51700649200581        0.11737045505810
C           -0.54024653367597       -2.25131060637214        0.41588285699476
N           -0.81897074430135       -3.40533751342857        1.05822256801736
C            0.82267304147760       -2.04658558391682       -0.00173794155560
C            1.54859289629535       -3.23737565010430       -0.24168383452301
N            2.08264579652570       -4.23927408993773       -0.40895918137222
C            1.55624622073030       -0.88029462725302       -0.14686737797587
N            2.85869747753523       -1.02922032006573       -0.48020337021169
C            3.45459442691037        0.14654937252349       -0.35399672312635
N            4.75324588950363        0.33117961533067       -0.58710686455826
C            2.51794284629032        1.16149412042912        0.06172064043739
C            2.84872131722945        2.49915314192619        0.25724132953102
N            3.18051049145232        3.58960628990402        0.40835186526477
C            1.26856782596264        0.53692735806806        0.16496962884256
C            0.10476753556737        1.28331585472416        0.39910258495004
C           -1.22537999385647        0.98673157650628        0.25509761865192
H           -4.30406642442003        1.97533568373912       -0.56601964789464
H           -0.11893153526286       -4.12308521168800        1.14509429813992
H           -1.78594361636874       -3.64034874325644        1.21126913017187
H            5.30810443421788       -0.45426190862429       -0.88057003387031
H            5.17695055363663        1.23318944085084       -0.45602558686494
H            0.30711464234917        2.33593610039907        0.58707578888052
