28
 energy: -52.240471816931 gnorm: 0.000603722451 xtb: 6.6.1 (8d0f1dd)
N            3.84512660073071       -2.93341854352504        0.11542631796182
C            3.05711258989397       -2.10276888865977        0.07194433252413
C            2.05060996402954       -1.09313259400384        0.02126075388819
C            0.78125434502369       -1.64524137657607       -0.04096478217884
C           -0.54101909201862       -1.16777389559197       -0.06124412212302
C           -1.42170155577621       -2.28956627128472       -0.14198952859517
N           -2.02345091949801       -3.25987658665602       -0.23770784522442
C           -1.15930556351476        0.08135107774098       -0.02473564152570
C           -2.57175676615286        0.20660751756720        0.02083759364632
C           -3.58190134413358       -0.75512284092782        0.11742120207057
N           -4.53645307016664       -1.38840555888064        0.21915638083352
C           -2.92323002775100        1.57885653325953        0.00180781483722
N           -4.17428236597003        2.06037007695584        0.03289683652646
C           -1.72994490534374        2.31839619645160       -0.06031802026471
C           -0.63163362812650        1.46082374986205       -0.06207693060370
C            0.64984485315577        2.01298359562016       -0.09172758526556
C            1.94050661890602        1.54280065673644       -0.04482429571123
N            2.91083382351970        2.49315812346294       -0.04518890665700
C            4.07735249876556        1.87624676636364        0.03288637230486
C            3.94114409420824        0.48340223423449        0.08144421138156
C            2.57180604127696        0.21359905174082        0.02938222093128
H            0.81096553264939       -2.73306847797642       -0.06536328782501
H           -4.95087913661483        1.42414774782668        0.10064925496330
H           -4.34329747945105        3.04997646633609        0.04155989147879
H           -1.67334435955571        3.39065528748271       -0.09164640894838
H            0.64185600891256        3.09810573598123       -0.13512671195562
H            4.99321695083332        2.43908008929711        0.05271236205062
H            4.73543368246816       -0.23491480913719        0.14313493587985
