28
 energy: -57.051080443991 gnorm: 0.000535871907 xtb: 6.6.1 (8d0f1dd)
N            2.53585630346447       -3.96696047391141       -0.62484553261387
C            2.47848500844246       -2.84669724028543       -0.37948632147162
C            2.40823546540893       -1.47916162222392       -0.09143989946597
C            3.45266245301670       -0.71608487660976        0.46624443584891
C            3.02024666196467        0.59094530797143        0.63715100250791
C            3.76959020593646        1.66483873794865        1.13064217537022
N            4.38204703112361        2.54578615613012        1.53781673131825
C            1.68644553317528        0.70462544043436        0.11903099750527
N            1.17596808838175        1.85975639224060       -0.15495511201791
C            0.00028624788157        2.25689880569599       -0.61041102445362
N            0.00046366761154        3.32045710639502       -1.43155175314611
N           -1.17551421823854        1.86015083293930       -0.15493460887809
C           -1.68636265113051        0.70521152188064        0.11919748364325
C           -3.02011990989636        0.59201080874841        0.63753820734701
C           -3.76899121553977        1.66613889049095        1.13122936104290
N           -4.38115801504380        2.54732585699236        1.53816822714110
C           -3.45302607700495       -0.71486622513886        0.46673710342121
C           -2.40898846543596       -1.47832089878636       -0.09115037116775
C           -2.48015687815501       -2.84573799979495       -0.37965769980908
N           -2.53653720054732       -3.96618118903831       -0.62403191006947
C           -1.26122295189553       -0.66520609667516       -0.25632675210776
C           -0.00032771896741       -1.20106362995995       -0.47217406790689
C            1.26077548199344       -0.66561542481648       -0.25652644068565
H            4.42668288966235       -1.09381752813028        0.71938708882290
H            0.86910764041914        3.79675626354456       -1.60669514108877
H           -0.86801677146318        3.79705304267051       -1.60668972405692
H           -4.42715886753795       -1.09224013756161        0.71996477395041
H           -0.00051318382795       -2.26970611334995       -0.67515849637980
