23
 energy: -49.613228076799 gnorm: 0.000603509040 xtb: 6.6.1 (8d0f1dd)
N            4.18648294018367        2.23324332083597       -1.18657367108286
C            3.42555117946559        1.44913926292481       -0.83841826101923
C            2.49005213054367        0.48753603301667       -0.43415181558140
C            2.68175932850996       -0.87701087205441       -0.34831905967818
C            1.49607375152389       -1.50313311209562        0.11785221404703
C            1.41904427434235       -2.88937620561401        0.31822409316771
N            1.45415922941812       -4.02304411773618        0.49006890956808
C            0.49820163999270       -0.53018217453458        0.30231671909562
C           -0.87604605052473       -0.77604525670506        0.30915306151824
C           -1.29954461010963       -2.13676478926490        0.32891809571720
N           -1.67675527440082       -3.21502229344096        0.39491484608516
C           -1.93885076178892        0.10220600574483        0.04367954512131
N           -3.09233862844961       -0.37223439757082       -0.42895665783511
C           -3.75815554588884        0.69571046750935       -0.88271762910826
N           -3.16871713659857        1.87360905030759       -0.72226885797010
C           -2.03089217629336        1.60846375226278       -0.07177093184424
N           -1.34875639550526        2.51554816801849        0.55739756435086
C           -0.16705406222229        2.51865664732958        1.07925520383133
N            0.89620857676316        1.94309619104902        0.57001331784913
C            1.18759398662904        0.79111092363903        0.09973990128390
H            3.58607834712570       -1.40221766838201       -0.59838782926771
H           -4.71948563737498        0.59898073782209       -1.35138781225278
H            0.01822840475542        3.23089482402714        1.87660062880865
