26
 energy: -44.001777966267 gnorm: 0.000717630698 xtb: 6.6.1 (8d0f1dd)
N           -2.98194349098156        3.04424498112248        0.00055938523720
C           -2.25231496012623        2.16093927593314       -0.00148866621678
C           -1.29261446883175        1.10243239409434       -0.00006668648613
C            0.00004928251093        1.63009656208186       -0.00110244881484
C            1.29267578196115        1.10233117951537       -0.00149226393525
C            2.25245782106674        2.16077086460131       -0.00196281787617
N            2.98214972271714        3.04407809220938       -0.00429221192109
C            1.85710080844972       -0.17601690236461       -0.00105505347029
C            3.26117295563366       -0.33998525802435       -0.00173632809017
C            3.57268395422606       -1.69017433027051       -0.00116278171619
C            2.38426784946890       -2.41230327739465       -0.00003563930123
C            1.28603601210628       -1.52966851277424        0.00010300100976
C           -0.00008484120468       -2.04400924380232        0.00121707764034
C           -1.28617128788511       -1.52957156723919        0.00165715857265
C           -2.38446987431169       -2.41212681645677        0.00286577805112
C           -3.57283274240298       -1.68991121281962        0.00302672540732
C           -3.26122101083337       -0.33974380639101        0.00190248102039
C           -1.85713675993204       -0.17587880535529        0.00108016484385
H            0.00008934811174        2.71812233640049       -0.00178094075979
H            3.97210089961276        0.46557138987863       -0.00263375417164
H            4.56327197949434       -2.10590099472301       -0.00151438085095
H            2.30217072312133       -3.48417944586749        0.00064304193306
H           -0.00012352646733       -3.13148598180223        0.00188576870434
H           -2.30245044449507       -3.48400843281658        0.00355157945990
H           -4.56345138852397       -2.10556298520433        0.00385983254738
H           -3.97208971888493        0.46586513006919        0.00175557008329
