28
 energy: -57.029049228367 gnorm: 0.000384980251 xtb: 6.6.1 (8d0f1dd)
N            3.19075413310192        3.57401496722506       -0.22500202620600
C            2.46727015971508        2.68722497303151       -0.19441277733259
C            1.52521987674710        1.61645312429488       -0.16682688590444
C            0.19883051997161        2.05644681359799       -0.16588746809272
C           -1.05465160875072        1.45778742957735       -0.04967477044559
C           -2.07352770432696        2.45391226452676       -0.14607994606349
N           -2.81394941762385        3.31795876640005       -0.27607221108783
C           -1.51796572509827        0.13440943906536        0.06999082425850
C           -2.87730839731062       -0.19156451339160        0.20420365553001
C           -3.95455994114172        0.63519106259739        0.55731191085316
N           -4.88889119428347        1.21161232327460        0.89228484628306
C           -3.06667333676392       -1.58499900807048        0.00630141558565
C           -1.84742638757272       -2.16982089002701       -0.24072911965645
C           -1.59472659328471       -3.52675686358702       -0.47732437616223
N           -1.39126621153473       -4.63882311515531       -0.67331620648789
C           -0.81135336214271       -1.16461093812272       -0.13313146924441
N            0.40795588418591       -1.56021896164737       -0.12707900902851
C            1.60346498771154       -1.02571209231651       -0.00855433507893
C            2.72522902646468       -1.82038999231010        0.18985546625981
C            3.84434330212240       -0.95161889560742        0.15510864476263
N            5.13099649572490       -1.27580979308101        0.28193807691081
N            3.47216313178216        0.32525780375867       -0.04559237385382
C            2.13799824093144        0.36314496394111       -0.10699703584008
H            0.13050373032862        3.13869335712700       -0.25320203005321
H           -4.01806158897373       -2.08303550316482        0.05151716763774
H            2.73145578029558       -2.88322774049920        0.32162413500761
H            5.41573808778359       -2.22679461329357        0.43337638224292
H            5.81974341114132       -0.54737074324330        0.19866209780596
