26
 energy: -48.792513293547 gnorm: 0.000660355321 xtb: 6.6.1 (8d0f1dd)
N           -4.60306874893185        2.14059353259450        0.13073385058290
C           -3.73081262807611        1.39532853608972        0.08626321194199
C           -2.66414457303476        0.48830360358257        0.03475064695349
C           -2.79232929147801       -0.88846489090070       -0.06826454238851
C           -1.50531226841597       -1.44775814766881       -0.08154866139177
C           -1.34606492512473       -2.83314452786780       -0.24727839650883
N           -1.36849352294772       -3.96560411763864       -0.43077499494939
C           -0.53354434929804       -0.41532231238434        0.00456930149567
C            0.83690745665185       -0.69414284604190        0.09366697338286
C            1.18912738676344       -2.06792531659837        0.28273647808734
N            1.48095529007041       -3.15360700818011        0.49918601881154
C            1.98909174342866        0.09240180770546        0.05337903895680
N            3.14966558596450       -0.60187312686277        0.09549151922860
C            4.14962900580063        0.25769891208902       -0.01954595889307
C            3.69179893775788        1.57273647380369       -0.13094500536103
C            2.29094598319009        1.52750136308859       -0.07693709072008
C            1.53262847914798        2.69689315721853       -0.09247569525180
C            0.18684762218299        2.97644420732759        0.01308025044497
C           -0.96413170460607        2.19542869456276        0.09470398278682
C           -1.27649122798382        0.84701070362580        0.05235866247036
H           -3.71154705403887       -1.44100989880067       -0.13044556373470
H            5.16657220481378       -0.08902402699050       -0.01957463307402
H            4.29346221049545        2.45590712982780       -0.22772061870475
H            2.15447015325064        3.58286087077469       -0.18041179525425
H           -0.03117514356080        4.03835589340332        0.02029176475009
H           -1.86262622862131        2.80432427164072        0.16563397003902
