30
 energy: -61.265254853723 gnorm: 0.000601781035 xtb: 6.6.1 (8d0f1dd)
N           -3.31221370263785        4.14435644053711        0.71017950793235
C           -3.01458738972703        3.05022574157653        0.52867784096787
C           -2.61590442340885        1.72881092555420        0.29684900772850
C           -3.45650785908523        0.63025483127050        0.20101251611817
C           -2.67642317296461       -0.50130408262053       -0.08142136265486
C           -3.25774748650995       -1.77511325393487       -0.17483711354996
N           -3.84179277100982       -2.76226710641276       -0.20559124195582
C           -1.30316335330792       -0.13520466370025       -0.11566551368365
C           -0.29334254127958       -1.09027232418189       -0.23440337902106
C           -0.69381867070735       -2.35102770818815       -0.76467812454514
N           -0.93648106973625       -3.30689412872372       -1.34793441629320
C            1.06873944447402       -1.04417078895411        0.09985422279166
C            1.82207671755634       -2.20646932329866        0.39573224580929
C            1.39170327666260       -3.52526664990709        0.57903674997859
N            1.10960103647780       -4.61567373279832        0.79937115611407
C            3.13885135925843       -1.77182896688122        0.65755546652243
N            3.26869721807950       -0.47399361656764        0.47554732177179
C            2.05774990297938        0.03801390544137        0.16169137081530
C            2.07270398053235        1.39521276711283       -0.16669456814108
C            3.41067755880214        1.88219057989875       -0.24741731371111
N            4.45656824831673        2.34041886989321       -0.35143412419847
C            1.07580673086033        2.38080805123172       -0.34957804127516
N            1.50453972984461        3.60981097856048       -0.72808702120093
C           -0.30591031853779        2.30043228727989       -0.07750731194868
C           -1.25586410418836        1.31878687337459        0.08298416334804
H           -4.52398042424460        0.63316615533821        0.32172609038608
H            3.96806578761550       -2.37993133309549        0.96700843136640
H            0.86312208254032        4.38231717430058       -0.77309385314867
H            2.48673136405974        3.79271797592435       -0.85214906831486
H           -0.74593912191492        3.29403940856987       -0.00726447860699
