28
 energy: -53.053203502644 gnorm: 0.000760267350 xtb: 6.6.1 (8d0f1dd)
N            4.91011448123244       -2.66407009547935        0.00095382280924
C            4.16411337846135       -1.79175395155980       -0.00098778565136
C            3.24549750312211       -0.73317865927229       -0.00023229907387
C            3.58478698167980        0.62009962076887       -0.00023073348706
C            2.40023956715642        1.35642572850186       -0.00025459917456
C            2.32866293213130        2.75674812823662       -0.00096353642302
N            2.27581869853629        3.90299861560719       -0.00078064716300
C            1.27983673399586        0.47289486985975       -0.00003269290796
C           -0.00024297624290        1.00409689055414        0.00005633819972
C           -1.27997545082399        0.47205933655467        0.00030908757548
C           -2.40095440809087        1.35486279530715        0.00056287275702
C           -2.33024689806922        2.75521923218284        0.00073657329885
N           -2.27820035428415        3.90144370161230        0.00062038057386
C           -3.58502651047293        0.61776769296382        0.00075003051377
C           -3.24485678454401       -0.73528928673778        0.00056474016790
C           -4.16279118570304       -1.79445718617699        0.00021338517305
N           -4.90820991861147       -2.66727140124072        0.00136359862348
C           -1.82560368793833       -0.88180287102207        0.00039175074468
C           -1.27996930214389       -2.15993193195989        0.00021601982238
C            0.00096193860920       -2.69287342863606        0.00001145451894
C            1.28154335467808       -2.15909582423232       -0.00007966899791
C            1.82634275165452       -0.88061110826710       -0.00001991239462
H            4.58054265847465        1.02341276379730       -0.00046704146338
H           -0.00059866395208        2.09332250910268       -0.00003886686071
H           -4.58104527189260        1.02043080016899        0.00091750382318
H           -2.05229709555362       -2.92510800962491        0.00027325286560
H            0.00131435978491       -3.77686495947837       -0.00005480771450
H            2.05437478300612       -2.92376302233053       -0.00016659195520
