29
 energy: -56.740844127031 gnorm: 0.000921843885 xtb: 6.6.1 (8d0f1dd)
N            4.53180460748995        0.90129984526733        0.81133652093615
C            3.43144869705126        1.02945874239914        0.51106438019742
C            2.07099560110230        1.24420821102350        0.24623163630489
C            1.44609468862774        2.48177276898285        0.42441732265754
C            0.08138098680891        2.32697963672421        0.17981935666745
C           -0.82639743563190        3.38480544414811        0.33740480822099
N           -1.48405014176380        4.30587092826012        0.52655413734192
C           -0.19749867314487        0.95204677331441       -0.06931833057137
C           -1.49844259278624        0.49741447451490       -0.28049917295760
C           -2.46295733543908        1.46535812657949       -0.68944587617302
N           -3.22091464204799        2.19602389199761       -1.13931977495488
C           -2.08436554938654       -0.75186383109741       -0.04083052899260
N           -3.41826277174675       -0.77928031140709        0.04343231628551
C           -3.77824858250659       -1.98639441029174        0.50304192470793
C           -2.69048774401475       -2.81477919752135        0.69390196321253
C           -1.53910638457356       -2.07805827624081        0.30819294494313
C           -0.33010270143724       -2.69577992903724        0.10068903915144
C            0.90309593438899       -2.30456124227976       -0.46055658309324
N            1.66189285510757       -3.33806491046580       -0.91455115944444
C            1.49308640669525       -1.01953040243547       -0.49399958816245
C            2.80420026395214       -1.02499393708670       -1.04748365988232
N            3.80017118761768       -1.07880062397381       -1.61550715981263
C            1.09374457714935        0.25857798117946       -0.06017217153920
H            1.93280342223346        3.39434897497785        0.71463371763087
H           -4.81617025840835       -2.20248780049945        0.67662128055478
H           -2.70149275782035       -3.83535006629607        1.02362514742426
H           -0.35969578141135       -3.76053057177963        0.32004156692979
H            1.30971400157928       -4.27761733921115       -0.88195107163404
H            2.59045862460786       -3.18472739953704       -1.26961881204606
