31
 energy: -60.999658918147 gnorm: 0.000733251747 xtb: 6.6.1 (8d0f1dd)
N            5.26079741552208       -2.19078618676898        0.39207892260184
C            4.42251179172209       -1.41283645370665        0.28977931750348
C            3.39526124632397       -0.47015651621238        0.16057729642208
C            3.55165413801038        0.90721071082595        0.22469831996305
C            2.29672203172909        1.50072863721951        0.02014912091096
C            2.12002203493022        2.88827500520981        0.13283745687491
N            2.07767391761057        4.02245553636260        0.30299685052800
C            1.31132029810811        0.48947541761634       -0.13642857190169
C           -0.03616070651247        0.82319492752004       -0.34524352644933
C           -0.21606208171791        2.12914577819394       -0.88867834194306
N           -0.35785913061322        3.07492483625171       -1.52101913727337
C           -1.24407464678104        0.14364923778350       -0.14080114008516
C           -2.45160294649935        0.86816650052511        0.01098311144885
C           -2.67143473349451        2.24645465137224        0.10608959647927
N           -3.00574146272590        3.33500322421263        0.26144731191794
C           -3.52211597725745       -0.03990496463802        0.23261396406375
N           -4.79474750456447        0.30316619170881        0.46663684832226
C           -2.99070280847435       -1.33537826496631        0.16176543306536
C           -1.61077077086475       -1.27781936534594       -0.04972408278292
C           -0.88247256749364       -2.46871804628650       -0.25143841297775
C           -1.70546379018239       -3.63054768930655       -0.34227345112481
N           -2.32805678109452       -4.58809843181466       -0.43476615370272
C            0.46151368855017       -2.80809752706628       -0.35632370197113
C            1.65576918953903       -2.11355609681445       -0.21549581819897
C            2.01445092448259       -0.78846029109158       -0.04562346093981
H            4.46830540097536        1.43784397102805        0.40375977893946
H           -5.05821152409910        1.27408956942040        0.48869601350444
H           -5.49294085437308       -0.40024113469908        0.62928261456830
H           -3.56640627126478       -2.23689650665117        0.25782465400823
H            0.60890164035056       -3.87210985549532       -0.51467823430090
H            2.52080454105574       -2.77144238948578       -0.21884429836608
