28
 energy: -51.449847014086 gnorm: 0.000643360693 xtb: 6.6.1 (8d0f1dd)
N           -3.05900454974680        3.15469653568631        0.03777210499158
C           -2.29442246208405        2.30105534128303        0.02734711175518
C           -1.28595496090345        1.29236069469696        0.01373181041404
C           -0.00001841418635        1.82297097055905        0.00064751413139
C            1.28593723048265        1.29243470878205       -0.01368869413425
C            2.29434798245747        2.30119876887870       -0.02576930877881
N            3.05890708373360        3.15487120267919       -0.03295287066189
C            1.83983947016028        0.00279462971009       -0.01577136537095
N            3.17293473133622       -0.05294971659013       -0.02311450966597
C            3.53536776961604       -1.35213159065765       -0.01780161150331
N            4.83350337529163       -1.69315000074613       -0.04792222825118
C            2.41379911701654       -2.19407896324932       -0.00823383655303
C            1.28202540740624       -1.36943016740819       -0.00727172471389
C            0.00004212870593       -1.89617370558471       -0.00361466048961
C           -1.28195624639837       -1.36948240314755        0.00116904789698
C           -2.41370411033148       -2.19416776606693        0.00014286797427
C           -3.53529939082210       -1.35228062118631        0.01144086276342
N           -4.83343262650232       -1.69340560279361        0.04062832127349
N           -3.17290879362984       -0.05310139353544        0.01974337539810
C           -1.83981559385947        0.00270151935642        0.01275034282789
H           -0.00003648720637        2.91080537161954        0.00186979752106
H            5.11877033551187       -2.64811190758588        0.06787158722857
H            5.51328075461535       -0.95616067475711        0.01841200503070
H            2.42257782837332       -3.26667405280984       -0.00324163004170
H            0.00006021067470       -2.98373174846273       -0.00481409827200
H           -2.42244636218074       -3.26674969808478       -0.00727952120948
H           -5.11864412023925       -2.64808927588644       -0.07758430318691
H           -5.51320382989118       -0.95628028689857       -0.02429534707365
