29
 energy: -56.770066712067 gnorm: 0.000831006248 xtb: 6.6.1 (8d0f1dd)
N           -0.08340691796604        4.40400808472874        0.14143804202431
C            0.49450926120153        3.41368462511570        0.09001657869294
C            1.19707307077099        2.20316043037353        0.02770682066727
C            2.56832951596785        2.07909424908126       -0.10598306246659
C            2.88915341312261        0.70888660876512       -0.11939846128097
C            4.21406330113667        0.29003892184201       -0.31674329227811
N            5.32036223550054        0.07355490594250       -0.53272402372381
C            1.70827266890981       -0.06240889235178       -0.00263451603878
C            1.75279074513027       -1.46256439780591        0.10946224609581
C            3.04909392437663       -2.02153226473135        0.32238148119399
N            4.02053046465259       -2.58106566741236        0.55904771675611
C            0.81106902872435       -2.49600477707483        0.07234046075922
C           -0.56297454625266       -2.58517052961013       -0.05861716171593
C           -1.61496256863320       -1.68025483361820       -0.07026564295656
N           -2.85068062169941       -2.21505746542752       -0.16587675670125
C           -3.73983241629334       -1.22759344331036       -0.10178059198540
N           -5.05714849119339       -1.43252788880277       -0.16608965105937
C           -3.08658970867554        0.04156538406651        0.04206400848989
C           -3.74825521519688        1.26360526033273        0.13706949991087
N           -4.34609388178346        2.24211777202908        0.21683102460121
C           -1.70686540279456       -0.22186438542107        0.05329078624580
C           -0.77359369614250        0.81491857738694        0.12420805352664
C            0.59684775185719        0.89885199236612        0.06107048814809
H            3.27707309549601        2.88229940847800       -0.18900612355894
H            1.28499087161561       -3.47103835499596        0.14204085679389
H           -0.93647385457577       -3.60049287925292       -0.13457448720269
H           -5.70026123914315       -0.66247483431992       -0.10866079689606
H           -5.39960188152139       -2.37149922754457       -0.26987670433842
H           -1.25243847229111        1.79050879767150        0.19750548209692
