29
 energy: -60.766225059260 gnorm: 0.000617634698 xtb: 6.6.1 (8d0f1dd)
N            2.30084464350187        4.14285064640194        0.57041236165313
C            1.76506024679096        3.13952352204477        0.43689245960887
C            1.04503457531210        1.91779736303336        0.29097067697800
C           -0.32172289628418        2.11904949272386        0.04489726378748
C           -1.43263200222488        1.31826206726467       -0.17673868629230
C           -2.59337954259042        2.10819911643363       -0.42516677973217
N           -3.48522600684569        2.79519854370863       -0.63765416736122
C           -1.68376281132157       -0.06984427624094       -0.08821937154896
C           -2.94549451279828       -0.64410909388910       -0.11812761446214
C           -4.20106416630644       -0.16420546485968       -0.48945988579664
N           -5.28707311347914        0.08136306338234       -0.77599403522372
C           -2.78180312116266       -2.01036599177655        0.35991547713196
N           -3.77532216204778       -2.87580290578241        0.52853266159772
N           -1.52012292201184       -2.29237475614940        0.62065864167421
C           -0.77867466377148       -1.21121056773729        0.29739124569929
N            0.49326652014218       -1.35675625934792        0.22559000501285
C            1.57414599104396       -0.65028031210731        0.07009985557603
C            2.82691666819792       -1.21638870786457       -0.20667510127043
C            3.14614917472697       -2.53023111695596       -0.54101601619786
N            3.48164444987923       -3.59032288780322       -0.83088729443548
C            3.78600626243547       -0.16890390005802       -0.01917363186273
N            5.10587535398426       -0.27928195919832       -0.13197949361755
N            3.19834074066402        0.98981120271690        0.30309565054858
C            1.87543678979047        0.79889804584859        0.29164406332869
H           -0.56737640799697        3.17850399674475        0.00337831820269
H           -4.71716532827413       -2.63039017843871        0.27247442490321
H           -3.56394827325926       -3.79736009999999        0.87190674577119
H            5.52704591836982       -1.15120967997825       -0.40415037721851
H            5.67730597006253        0.52629007396547        0.05998855359477
