30
 energy: -56.497258129035 gnorm: 0.000872770228 xtb: 6.6.1 (8d0f1dd)
N           -5.28268980188255        1.99792089528003       -0.00385702109741
C           -4.43768929756249        1.21996822498339       -0.00229910645077
C           -3.40239439461680        0.27780782373837       -0.00144008323643
C           -3.57302117674594       -1.10349846662437       -0.00104332470481
C           -2.30630915055400       -1.69512924868855        0.00000735906855
C           -2.06956510505507       -3.07523682105987        0.00080087201194
N           -1.88285860202739       -4.20822969958305        0.00102793782234
C           -1.30198747252862       -0.68553878066283        0.00026495560627
C            0.03441311871754       -1.05464528385822        0.00129067830734
C            1.24719735184834       -0.38554614985085        0.00186073905772
C            2.44596692946206       -1.14225902537668        0.00305776319053
C            2.56059064701691       -2.53350392533872        0.00402638950600
N            2.71985475632931       -3.67220035985245        0.00368651723789
C            3.56238763409638       -0.26767008558604        0.00352208999794
N            4.85078133799844       -0.64270449431239        0.00460538568008
C            3.06214360070395        1.04079119052786        0.00270785128084
C            1.66288028278059        1.02511253051942        0.00167556361476
C            0.94080663644896        2.23383606939079        0.00073076676599
C            1.77175358790776        3.39351113139398        0.00105654629390
N            2.39984186623774        4.35205396314287        0.00101220080202
C           -0.40406459804313        2.59933447213608       -0.00036423068295
C           -1.61504363845806        1.92130652375811       -0.00094879313036
C           -2.00732174617033        0.59315385351371       -0.00069737076884
H           -4.51218985823207       -1.62556339694897       -0.00139629051954
H            0.16227552230311       -2.13630683863897        0.00178651934910
H            5.09337297837271       -1.61821982163415        0.00517354929036
H            5.58135856380472        0.04601995851674        0.00497018429342
H            3.67243610009403        1.92473573327389        0.00287852660474
H           -0.53185102249386        3.67806484209495       -0.00087999648305
H           -2.46746762435231        2.59572119114585       -0.00179191570751
