31
 energy: -60.212591935540 gnorm: 0.000733267016 xtb: 6.6.1 (8d0f1dd)
N           -5.22544687241447       -2.20077576457907        0.68187893326533
C           -4.39434003720806       -1.42954774845135        0.48645521012008
C           -3.41505404887076       -0.46430418311504        0.26072756236041
C           -3.63348123808951        0.92831109089167        0.32093817450387
N           -4.78898207772737        1.53450632298766        0.62669525698280
C           -2.41669823248547        1.56461306584687        0.00381945975965
C           -1.42022859919950        0.62002798972716       -0.22291136462566
C           -0.08247201634594        1.03116646948767       -0.43276734345210
C            0.02825947781587        2.43659564116060       -0.62725641760338
N            0.06310053425366        3.55665960585475       -0.87097852661703
C            1.13695442182601        0.36185755030674       -0.32881128963414
C            2.37330052354897        1.01044849039681       -0.10306056723790
C            2.72214112449562        2.36159078407022       -0.14898192301363
N            3.16200519257925        3.42441889071480       -0.13423799555710
C            3.33965401318011        0.04554635939044        0.29425117600509
N            4.59711942302181        0.31289542906893        0.66188578760315
C            2.74240049500542       -1.23288991231204        0.22629437968029
C            3.39974939646375       -2.42779068893546        0.52017989905946
N            3.98424698276011       -3.38396967957785        0.77535591338662
C            1.40949923007821       -1.09250303121628       -0.22762313724408
N            0.75333161808438       -2.11565862485063       -0.68987464410323
C           -0.45387286958850       -2.47579657077914       -0.96023775875682
C           -1.68304777286595       -1.97575329804657       -0.50054447749933
C           -2.06541078656316       -0.71261078785338       -0.11066403703878
H           -4.85356954375980        2.53681947929383        0.62344291853280
H           -5.60430059471129        0.98867939271667        0.84604746849086
H           -2.28376256346642        2.62985699405176       -0.01826294841263
H            5.21423535703649       -0.43263779397379        0.93505872976108
H            4.93863597215722        1.25911985748581        0.63222771208012
H           -0.50184650156730       -3.40268747119498       -1.52752067936347
H           -2.48386620047838       -2.70801785933016       -0.49474752118857
