30
 energy: -55.697231839693 gnorm: 0.000781277718 xtb: 6.6.1 (8d0f1dd)
N            3.91787374986312       -2.85401502385907       -0.00901015320227
C            3.00659116610099       -2.15822196652361       -0.00757911498248
C            1.84120007060099       -1.33683971276950       -0.00602333329557
C            0.69435318162719       -2.12430149142948       -0.00203957922397
C           -0.67987312317877       -1.88922916670669        0.00121516140744
C           -1.44051431296590       -3.09529472072306        0.00651254184759
N           -1.99589935071688       -4.09739804917089        0.01096644365119
C           -1.49638868333928       -0.75275670222536        0.00007517523693
N           -2.82306584818580       -0.98557716137446        0.00199528327233
C           -3.45210383399285        0.18919076968776        0.00022998224288
N           -4.78630422238881        0.28294319405068        0.00408085518554
C           -2.51984096492405        1.26939507047004       -0.00252530420362
C           -2.85100473621871        2.61857128318701       -0.00345989969368
N           -3.15225249847689        3.72971779087678       -0.00823540901867
C           -1.23209947208013        0.68855434874100       -0.00304251772391
C           -0.08963124461031        1.48169768316477       -0.00459450459758
C            1.27214175616827        1.25795251248690       -0.00492710724577
C            2.14840589846286        2.35409168068730       -0.00311270453157
C            3.47125768640578        1.90252850251797       -0.00276742201152
N            4.58271329198500        2.66246479631797       -0.02506125663308
C            3.44338016970486        0.49070532695413       -0.00654637060071
C            2.12864579161617        0.04278332441526       -0.00657954862116
H            0.92346863197007       -3.18805595494025       -0.00116709677753
H           -5.23947042501498        1.17888868649604       -0.00708452204461
H           -5.32734560514089       -0.56337662036918       -0.00062359718668
H           -0.33385350982717        2.54195243249010       -0.00525306134558
H            1.84004330795908        3.38312787409981       -0.00166978271955
H            5.48590796804791        2.23202856611614        0.06109768608546
H            4.51345595283328        3.66016743591430        0.06466218004045
H            4.31649225731587       -0.13524619518248       -0.00827549061038
