26
 energy: -52.784791242157 gnorm: 0.000846201430 xtb: 6.6.1 (8d0f1dd)
N            3.91792465065264        2.82701523708270        0.40051427083476
C            3.10367894065824        2.02899200511121        0.29573736792619
C            2.04832092381178        1.07543199435493        0.19057896598093
C            0.78469835544543        1.65507558456262        0.12932648404501
C           -0.52882454004702        1.19804298738222       -0.03219935445591
C           -1.43049753576978        2.30489981126218        0.00798773113686
N           -2.08636663138753        3.24221559559307        0.06553714240620
C           -1.14401156007516       -0.05840227322599       -0.12400981006122
C           -2.53193770820996       -0.22164349381771       -0.18075317451789
C           -3.54280765621599        0.68314148416861       -0.52145656490996
N           -4.47175252872162        1.29121063935381       -0.81900459073202
C           -2.86899877594822       -1.58634625603321        0.13193004091540
N           -4.12021787244278       -2.04897547553494        0.20144466644911
C           -1.68421395643197       -2.28838968775043        0.33008689566864
C           -0.58972126438787       -1.44298796086510        0.09184402241316
N            0.59616920386822       -1.94530707395296       -0.02914901132264
C            1.81840201470850       -1.54912732198705       -0.15535342804857
N            2.78557543720076       -2.43964126394994       -0.45712596358662
C            3.92064156313446       -1.77754824371571       -0.32698713068907
N            3.82007369258893       -0.48513939823543        0.01356692234289
C            2.51246339729204       -0.24099445065267        0.08836897455971
H            0.82926088178689        2.73900176197178        0.21452151779760
H           -4.29739566650873       -3.01179863230162        0.42843321617176
H           -4.89356482607856       -1.44561979771388       -0.02697353634639
H           -1.59112655033626       -3.33136660079352        0.56104021851292
H            4.87629449411115       -2.24302041361262       -0.48225170889172
