29
 energy: -51.969419610993 gnorm: 0.000739681840 xtb: 6.6.1 (8d0f1dd)
N            0.19356254443622        4.53846865141657        0.14874977656379
C            0.63412241560730        3.47843222825350        0.09481769278055
C            1.15873202478175        2.18380878367576        0.03294998294883
C            2.50284878797951        1.86508117733235       -0.11306742093079
C            2.62185866721947        0.46968828471586       -0.12556365457427
C            3.86393611467009       -0.14424288393013       -0.33862656748968
N            4.92270363839812       -0.52599018065035       -0.56709564197435
C            1.33421152663211       -0.12149122888630        0.00441746662366
C            1.17314610891820       -1.51094141121386        0.11833695340953
C            2.37174176181153       -2.25870216428905        0.32024460584238
N            3.24578357032099       -2.96252412250149        0.55435550483281
C            0.08773425476753       -2.39107382296947        0.08905158747507
C           -1.28714255614873       -2.27613505494351       -0.03689114085488
C           -2.20308217690466       -1.23499231714580       -0.04248629478248
C           -3.57554557651607       -1.50504147124886       -0.13627383522667
C           -4.30271218167720       -0.31193774915535       -0.04587890207228
N           -5.64740198065577       -0.18777521573941       -0.05687639157495
C           -3.37724053132293        0.73827556386760        0.10634268568990
C           -2.07680854737349        0.22905614609996        0.09790401086887
C           -0.99445224989746        1.09570006400978        0.16399180089412
C            0.38166749196927        0.98220978791467        0.07746878932831
H            3.31629546154356        2.56080855545553       -0.20590573714407
H            0.41218961951492       -3.42579228601895        0.15726212383136
H           -1.77642350405041       -3.24266693101546       -0.11556313807599
H           -4.00253515144958       -2.48465602369900       -0.24981698360866
H           -6.21739203458108       -0.97866464992059       -0.29854776254545
H           -6.06122205200995        0.72614754783227       -0.10396066322989
H           -3.63126457172307        1.77839503320258        0.19985564684318
H           -1.31165495046010        2.13293270075110        0.25177531325206
