28
 energy: -57.818700038744 gnorm: 0.000879428260 xtb: 6.6.1 (8d0f1dd)
N           -4.82567130176436        2.51433067530623       -0.66664836616900
C           -4.05425719054164        1.68239971292767       -0.49595860237349
C           -3.10801529342799        0.66842549414271       -0.28722622180339
C           -3.39961678149242       -0.69517150759381       -0.21975250850806
C           -2.21341648686580       -1.38106197400047        0.03963962367905
C           -2.18054707171378       -2.78478092166522        0.08921776860245
N           -2.26749212370452       -3.92825265819312        0.07155520794930
C           -1.12582604596550       -0.45385284943986        0.08618591400059
C            0.18607125125734       -0.89520312132341        0.24291582658614
C            0.32611415118953       -2.19893084012280        0.80508468455130
N            0.48251668602671       -3.15065521598347        1.42327566661499
C            1.42839824340449       -0.29317508764834       -0.03402690139351
C            2.60529851259828       -1.05077131313477       -0.25000302074146
C            2.76422033008100       -2.43282120582790       -0.40789046243448
N            2.96543974187256       -3.54501468618149       -0.60530069199276
C            3.64925985713079       -0.11836014891015       -0.44727996156345
N            3.22617915780436        1.11823134720538       -0.29777732414360
C            1.89341610837736        1.09420220342021       -0.08358840210864
C            1.29626725136619        2.34219859748063        0.12615218781638
C            2.25672574741751        3.39427383832290        0.23054379357893
N            2.97410048703942        4.27863784240557        0.34256128744845
C           -0.02048835664013        2.79835762607443        0.17392950798209
C           -1.24869229824701        2.18493140889194       -0.00004201599112
C           -1.71181590936370        0.87681163438059       -0.10555805360083
H           -4.36747598390075       -1.14404880342703       -0.34470034787266
H            4.67337281050352       -0.33855034752647       -0.68343054122415
H           -0.08703770267796        3.87398414179674        0.30006423457692
H           -2.06429481296728        2.90102881782232       -0.06306525496749
