27
 energy: -56.528404587709 gnorm: 0.000531777906 xtb: 6.6.1 (8d0f1dd)
N           -4.07707317777826        2.66696291738141       -0.00594904793723
C           -3.10751584232669        2.05723981995288       -0.00450328501491
C           -1.87615151671512        1.33981860929253       -0.00225600806034
C           -0.75565870314991        2.15114922553054        0.00171236401555
C            0.62512605916072        1.92287489489083        0.00486404297087
C            1.38292631674999        3.13173379522818        0.00870470966608
N            1.94374012876424        4.13012434954824        0.01119111342554
C            1.43876015361593        0.78667802687137        0.00534495158166
N            2.75724701913523        1.00691166763595        0.00892802095272
C            3.38783691519692       -0.17544429880236        0.00866954102630
N            4.71398291198263       -0.26059378359639        0.01173956746678
C            2.46156089182032       -1.26223938517672        0.00474871286127
C            2.83076100763122       -2.60627860801417        0.00363129616286
N            3.22136517431787       -3.68690674894747        0.00288381184358
C            1.17618446604618       -0.69572924509710        0.00254196020777
N            0.11951186108336       -1.46263768133704       -0.00106091348895
C           -1.16279268525388       -1.26839491504655       -0.00391274225438
N           -1.96151376481982       -2.34190705717874       -0.00713387822124
C           -3.20787495337813       -1.86853645922891       -0.00972102075213
N           -4.28397766163616       -2.64230715205022       -0.01335454274814
N           -3.31363043009969       -0.50920706488971       -0.00836514432951
C           -2.07289534046171       -0.05769828132517       -0.00467509220107
H           -1.00069165215370        3.21097712275528        0.00258868272353
H            5.25382007124932        0.58864836963942        0.01437422863917
H            5.17039723242220       -1.15702702050170        0.01145004298201
H           -4.17063629478991       -3.64086725152593       -0.01426638517712
H           -5.19450680531247       -2.21652175820657       -0.01518765614695
