28
 energy: -52.249223541663 gnorm: 0.000795973004 xtb: 6.6.1 (8d0f1dd)
N            0.32852323803620       -4.57454156510749       -0.20739112130340
C            0.73877061261399       -3.50366925036625       -0.13654218847943
C            1.22689722458381       -2.19513855084598       -0.05539348023059
C            2.54982040525243       -1.83467444675346        0.10313194867054
C            2.62307288282877       -0.42683710728266        0.13395482945645
C            3.84719689804998        0.21861566196327        0.36310102975414
N            4.89287236570713        0.62505029341471        0.60762159916426
C            1.32887804480169        0.12451430143546        0.00387393639188
C            1.12775459946040        1.51566711606380       -0.10397144519717
C            2.30783915808163        2.28689582706058       -0.32439207918251
N            3.16719645886789        3.00132383002588       -0.57839369625975
C            0.02347413901911        2.36510412968277       -0.05604475635737
C           -1.34844149010222        2.21044702463186        0.08211165712622
C           -2.22322879197928        1.13937176378580        0.07468895718906
N           -3.53411205870906        1.44016714059956        0.17645296625398
C           -4.22378163702634        0.30012012606104        0.08318009961440
N           -5.56097641436895        0.27969266837604        0.15370495362321
C           -3.35992404341615       -0.81486502201194       -0.08383891606695
C           -2.06442252761135       -0.31872534874441       -0.08225658122479
C           -0.95503143219366       -1.16833286133967       -0.16490076159961
C            0.40570168484323       -1.01125202019894       -0.08570997822882
H            3.38888314354577       -2.49979352351121        0.19231611587387
H            0.31709448861844        3.40916194180958       -0.12157063040381
H           -1.89017608728171        3.14511501478374        0.17816479063478
H           -6.07335283256621       -0.57646921431614        0.04610370082495
H           -6.05189439334364        1.14978567381823        0.25844423561759
H           -3.65938813264018       -1.84066436210903       -0.17950020528400
H           -1.25197010997170       -2.21105728212514       -0.26011910277707
