30
 energy: -59.711060253179 gnorm: 0.000993428260 xtb: 6.6.1 (8d0f1dd)
N            5.04814467249037        0.92233204418828       -1.49173651208885
C            4.11097190441309        0.42447092625435       -1.04801085872117
C            3.00451346476900       -0.24140965615922       -0.52633294060132
C            2.94266377946212       -1.63335685191436       -0.27510310333661
N            3.91398120423872       -2.51206118117759       -0.54854051046675
C            1.68983491672199       -1.93802376454956        0.30299330534745
C            0.91912326240743       -0.78701705727843        0.37630188374804
C           -0.46899393690778       -0.80614108067540        0.60234491585960
C           -0.94951524598879       -2.05074822753897        1.08545538203938
N           -1.29482985172698       -3.04061355554981        1.55106879240796
C           -1.46087462827725        0.10487945302043        0.21228825131540
C           -2.79348789161436       -0.22168710651083       -0.05960199367630
C           -3.52624287559964       -1.39060106741670        0.11802323683988
N           -4.24336583045523       -2.28737097571084        0.19909078273996
C           -3.34919318728260        0.91960980393159       -0.74319664342101
N           -4.58283021934311        0.98342738828582       -1.24155205858190
N           -2.48604199484655        1.92674882270998       -0.83797819814983
C           -1.36170624586440        1.54396267077995       -0.21669522346344
N           -0.48984634575958        2.43103168430576        0.13295457959745
C            0.72236415450755        2.36707018120785        0.64074401202113
N            1.04896032776968        3.31949021054946        1.53965577389556
N            1.71778085972829        1.61101095603914        0.20833846276368
C            1.81415675037031        0.34645245901690       -0.04429218679817
H            4.75995903925207       -2.20302074736059       -0.99636153624839
H            3.80931591019523       -3.48117703344313       -0.30536808088048
H            1.36177554678905       -2.92862005998469        0.55784379728390
H           -4.86949502020726        1.81608482885239       -1.72586136017636
H           -5.22195792749404        0.21687655228970       -1.11745379912465
H            2.02227256707083        3.46699505666513        1.74552152259390
H            0.39583601428077        4.06835420156933        1.69428897848054
