28
 energy: -57.037220866024 gnorm: 0.000859599089 xtb: 6.6.1 (8d0f1dd)
N            4.16071840591716        3.23510994948899        1.21859880248253
C            3.64079055942405        2.27350779186753        0.86979338936773
C            3.00160022899962        1.09845087846104        0.45811867374852
C            3.55834453105345       -0.16073888746762        0.37018984126889
C            2.58473760135193       -1.07844417505025       -0.09733479819397
C            2.90250674765317       -2.41863483585640       -0.35662208693824
N            3.26788777166595       -3.48388762000205       -0.57704752384450
C            1.35493524036012       -0.41091292889911       -0.25343161004444
C            0.10672855173179       -1.03196623955482       -0.27358029113516
C            0.10684525148951       -2.45910002761505       -0.26378425422367
N            0.08865775974174       -3.60345146342241       -0.28434999878689
C           -1.19779455500767       -0.53165676620742       -0.10959272810082
N           -2.13119899337983       -1.45604856892457        0.15712433297536
C           -3.30632603253907       -0.84149144367539        0.32912343616069
N           -4.41368903742921       -1.51242665117278        0.63997381612174
C           -3.17563278223020        0.56590227446133        0.12897591807448
C           -4.21383372881694        1.49114644412020        0.20173614645013
N           -5.09133950346669        2.23065918304349        0.26793709422373
C           -1.82132904626473        0.80922166224957       -0.16383854718987
C           -1.37851649812783        2.04350089538014       -0.63584447732039
C           -0.09890062316182        2.50302763992169       -0.89993723055747
N            1.04703048553093        2.09835324439959       -0.42688600059580
C            1.64963882315271        1.03689178115095       -0.04343548843813
H            4.57340101463088       -0.42069662726151        0.61067959108763
H           -5.28955536260242       -1.03579233861274        0.76691560998799
H           -4.35806589650549       -2.51167245435966        0.74032319307155
H           -2.17160107434502        2.75999592784375       -0.82058459924633
H           -0.01675647222784        3.44564781378946       -1.43412189350316
