29
 energy: -55.960954534181 gnorm: 0.000989956527 xtb: 6.6.1 (8d0f1dd)
N            4.17412668809749        2.62144149469939       -0.14273277081036
C            3.21968876326881        1.98591315573785       -0.08122895956788
C            2.01202047117150        1.23490990879606       -0.01292643129538
C            0.85485627359062        2.06109358572800        0.05712690792418
N            1.09673288085431        3.40152323526745        0.14281312583556
C           -0.50809440979932        1.74135310367791        0.04032740592988
C           -1.30328634540803        0.61223729079763        0.00238040606655
C           -2.71600057374761        0.74097848602153       -0.03100240994509
C           -3.45431489441933        1.91865009402057       -0.05352794143015
N           -4.06927409431767        2.89129278804133       -0.07403815911197
C           -3.24608791342679       -0.57401145240759       -0.03455903573983
N           -4.53077899500294       -0.93474240700910       -0.06703679442549
N           -2.26318403516293       -1.48712303527818        0.00059344838426
C           -1.09033311608936       -0.84518800768217        0.01809146289395
C            0.05766742951777       -1.64245996702708        0.05288023194978
C           -0.24138400334515       -3.03827903138594        0.09555570765450
N           -0.50362283000716       -4.15143886565944        0.14043831114294
C            1.42364212364235       -1.37576848256139        0.03033658011231
N            2.22125112486421       -2.45033054665625        0.03082311337045
C            3.48610591723552       -2.02682490205840       -0.03023023400318
C            3.57431609645454       -0.64541862470255       -0.07062775541040
C            2.25810711407936       -0.14015557529278       -0.02458455314484
H            0.33219307167394        4.05232720164540        0.13208989680549
H            2.03284421101762        3.76572756930088        0.11360434480591
H           -1.12104120575802        2.64155010455297        0.05706185413667
H           -5.26183885471309       -0.24632463143211       -0.09082466744298
H           -4.75183480806681       -1.91518493752283       -0.06124686928737
H            4.29203628935485       -2.73748706596625       -0.04387999397732
H            4.47730612764138       -0.06998020444486       -0.11810234112043
