26
 energy: -48.785006965564 gnorm: 0.000885266014 xtb: 6.6.1 (8d0f1dd)
N           -3.19542241895398        3.25724807730022       -0.14298893432898
C           -2.52362943994891        2.33195768618928       -0.07932805868028
C           -1.65256634757326        1.20248108336557       -0.00095067288996
C           -0.31660629939960        1.60656757608784        0.04501294103510
C            0.92331190666469        0.95962876436196        0.05051652965993
C            1.95840655076538        1.93456171823304        0.19462172305800
N            2.69755359714238        2.79450784333408        0.35598923921056
C            1.33889487141723       -0.37298469722265       -0.02127445588135
C            2.70811005711437       -0.74207923108512       -0.07188226884173
C            3.83763625752836        0.06325538578469       -0.27118242029469
N            4.82589828093617        0.61408371761511       -0.46747907401779
C            2.82515151385077       -2.14404524445675        0.02641665803646
C            1.56392214609561       -2.68466748769720        0.12632329451225
C            0.59265701113828       -1.65337635034085        0.06456227095505
N           -0.65987619767284       -2.01061483377564        0.06421822670259
C           -1.82205452540133       -1.43309183718791        0.01979467454744
C           -2.97663785614071       -2.25023829311311       -0.04128517457268
C           -4.10819472158338       -1.45252221945256       -0.05094083462076
C           -3.71618491708875       -0.11442616301587       -0.00976775854999
C           -2.31411578484784       -0.02706517920293        0.02209256346116
H           -0.21446083887453        2.68907834367749        0.07565010665671
H            3.75819330729312       -2.67644424169771        0.01167368008345
H            1.31202786347732       -3.72359935900042        0.21709160763669
H           -2.93972619734502       -3.32215386115629       -0.07165272830535
H           -5.12482497517054       -1.79881678234274       -0.08021615068500
H           -4.38462042162306        0.72725331749852        0.00850396421312
