28
 energy: -57.024779923086 gnorm: 0.000775857447 xtb: 6.6.1 (8d0f1dd)
N            2.59373257379900        4.29271192403598       -0.84167827461511
C            2.41930891864994        3.18349502603408       -0.60478599255083
C            2.21365094235626        1.82633744335110       -0.32429874621220
C            3.22696320980373        0.88332815070851       -0.12484889144869
C            2.64029322264515       -0.34559607719833        0.16336024196957
C            3.42583441653596       -1.49579008127091        0.33290877885264
N            4.16642296201879       -2.36759789160388        0.42632826927427
C            1.21228625644289       -0.22468189510720        0.08587201342125
C            0.39996256748725       -1.34749993145526        0.14132550265685
C            1.00865700678068       -2.52790675518771        0.65708803797920
N            1.35668233178241       -3.49494378099988        1.16678820917133
C           -0.94224487160227       -1.64348813624993       -0.29390636268963
N           -1.11799207826269       -2.90339760423429       -0.75888624854201
C           -2.09396985792709       -0.84328943433493       -0.20902459281993
C           -3.31680856449824       -1.50408177444737       -0.51890675184018
N           -4.27527030900219       -2.06488781830627       -0.80384991991155
C           -2.32261624441077        0.47277121156861        0.21475841210630
N           -3.58535418545663        0.83563517309114        0.48679453746156
C           -3.53424170857424        2.14818436489207        0.70843832513757
N           -2.34465083335193        2.71022206076232        0.52952733798833
C           -1.50512016537978        1.69863587352408        0.24440472665572
C           -0.18520847667241        1.98781691736930       -0.05845561466058
C            0.94719025663887        1.20442146147333       -0.16786894419061
H            4.28347485003168        1.06982484477059       -0.18514792896866
H           -2.04991040661716       -3.24858942238946       -0.92948982859717
H           -0.36181084889124       -3.56815112320387       -0.74863541142517
H           -4.40033717073833        2.71200079112164        0.99837542441517
H           -0.00839591558581        3.05590428208622       -0.14789873681822
