26
 energy: -48.006188334319 gnorm: 0.000893677622 xtb: 6.6.1 (8d0f1dd)
N            1.64640299270523       -4.20726631893352        0.73433955426921
C            1.68936208467033       -3.08568899001687        0.48608508865033
C            1.71165893773569       -1.71892688508760        0.19775460657998
C            2.81761916614286       -0.98613328963941       -0.21694943713845
C            2.43878455691757        0.35300930762636       -0.39132506061923
C            3.27872626246845        1.40423468572276       -0.77016229785439
N            3.96478775974251        2.27124430222180       -1.08235435713265
C            1.06461686423575        0.49541949814439       -0.06639093626998
N            0.54555415964979        1.68015957396765        0.09648738456745
C           -0.61562697615192        2.23897919394955        0.26873106922912
N           -0.56474699092477        3.48792107015302        0.79122175112108
C           -1.90645257843442        1.78943197219421       -0.15425990307353
C           -2.44143212777034        0.54221852392694       -0.27614856948018
N           -3.76867808356709        0.48445929523889       -0.61920020887329
C           -4.15655619269756       -0.76007978284538       -0.47582838786116
C           -3.10948728874985       -1.60967618707782       -0.05847204993548
C           -1.97062142816592       -0.82158231302344        0.05455822257603
C           -0.70795933870967       -1.37269136343228        0.31415987353365
C            0.56095010999160       -0.86360995223310        0.22943327200738
H            3.80745361157650       -1.37698299976600       -0.36984051872287
H           -1.38073175624323        4.07159346796617        0.82408983918092
H            0.33791965223944        3.88655819277427        0.98594090670537
H           -2.60998189616952        2.58066878846985       -0.38789665385108
H           -5.17605759294235       -1.04230303649220       -0.67036759420238
H           -3.17432486973262       -2.66724905415730        0.11044612169386
H           -0.74306144721224       -2.44516159315311        0.49197994899979
