29
 energy: -51.968541217426 gnorm: 0.000988722255 xtb: 6.6.1 (8d0f1dd)
N            3.55603182251579        3.44771664733961        0.00240247496018
C            3.15709457811643        2.37005128783483       -0.01328324986483
C            2.66580062678068        1.06109116724011       -0.02207629726663
C            3.44948968921898       -0.09531736654245       -0.08391562503760
C            2.59517600369349       -1.19170090271406       -0.06877653234800
C            2.98813343968851       -2.53226513668095       -0.10983981871303
N            3.28684556267454       -3.64190001051024       -0.14195779970154
C            1.23150237004590       -0.74417581670926       -0.00500313903022
C            0.22867908652981       -1.69144401662752        0.06419380431864
C           -1.17142978049278       -1.73411656862121        0.09545026519660
N           -1.66961290898288       -2.99993761710973        0.25325840697938
C           -2.14404539144591       -0.70146872990394       -0.02712253328667
C           -3.46369408901031       -1.22204889227796       -0.16291973560862
N           -4.50899151866412       -1.67844609400550       -0.29357803757057
C           -2.12564725357226        0.69627525134698       -0.03387773308147
C           -3.34059383323485        1.41570184891180       -0.10433225991624
C           -3.09051709859609        2.77707140877111       -0.02659723646395
C           -1.71872527577168        2.96678231514597        0.08011205320181
C           -1.06153400313036        1.72125710829084        0.06638665896839
C            0.31830259515905        1.69625690549383        0.08476421163731
C            1.28588509767277        0.70533676527617        0.02021788487980
H            4.52235905235093       -0.12851114241489       -0.13250131912739
H            0.64723510320667       -2.69649087576131        0.09227695903558
H           -1.04769013444153       -3.78716870142588        0.20408159166693
H           -2.65587657396330       -3.17967060491591        0.18048248074219
H           -4.31527249459572        0.97324334722903       -0.18847058068594
H           -3.83488655391228        3.55127491615285       -0.04676049866130
H           -1.21669025740692        3.91402952252333        0.14949972086510
H            0.75082622986750        2.69314136686438        0.13403811951206
