27
 energy: -48.514766060212 gnorm: 0.000323507792 xtb: 6.6.1 (8d0f1dd)
N           -2.98341485528320       -3.44798788919971        0.00063189998315
C           -2.25885389714400       -2.56088302127244       -0.00028647241625
C           -1.29446795107505       -1.50565702054427        0.00005528087045
C           -0.00754677870641       -2.04252360998328        0.00043696947159
C            1.28318417812883       -1.51491831755425        0.00010181358033
C            2.23996415353992       -2.57705808984742       -0.00025406309846
N            2.95817184294077       -3.46940485077095        0.00123493256115
C            1.84907413452342       -0.23717424111938       -0.00054993671858
C            3.25562628089944       -0.09755891074853       -0.00135751987901
C            3.59308706972200        1.24645584381304       -0.00158836787953
C            2.42014195654716        1.99038320303811       -0.00086948082048
C            1.30103924546029        1.12747086427146       -0.00031100487067
C            0.00573547172733        1.65874342170505        0.00026325900730
C            0.01086974641956        3.09010893676794        0.00109396954821
N            0.01499802752196        4.23594656997969        0.00198574838240
C           -1.29333301994958        1.13678842781357       -0.00000328093747
C           -2.40621173051163        2.00770918584470       -0.00022782945069
C           -3.58446569700168        1.27222226660501       -0.00085655133694
C           -3.25666685500221       -0.07417948751590       -0.00090589039454
C           -1.85115749560974       -0.22389457140203       -0.00037721596506
H           -0.01144985639506       -3.13026397046411        0.00088168867450
H            3.95093133086973       -0.91630316687277       -0.00174248757308
H            4.58962191730815        1.64610150485645       -0.00221211647734
H            2.37143057425015        3.06290323748127       -0.00086741709564
H           -2.34980052746935        3.07985310328158       -0.00006072548544
H           -4.57810632556971        1.67901376216504       -0.00122794808936
H           -3.95783511424107       -0.88790978952789       -0.00130220579050
