29
 energy: -56.751640188743 gnorm: 0.000776963443 xtb: 6.6.1 (8d0f1dd)
N           -1.48364019731751       -4.34807130843140       -0.14254117512189
C           -0.82617541417136       -3.40879861866584       -0.08021871762415
C            0.07769517574224       -2.33799217515739       -0.06800161387956
C            1.42251784095708       -2.51526153762134       -0.41018211555372
C            2.05484668406853       -1.27412809436525       -0.39392832199086
C            3.39752371140075       -1.09622587799309       -0.75211878695141
N            4.48363982870006       -1.01924962654587       -1.11645511157953
C            1.10881763343291       -0.26909884199851       -0.03111324505684
C            1.52148919388395        0.99335051850624        0.39243054255437
C            2.90577971737988        1.20462069473842        0.59459583644638
N            3.99365637764875        1.46394625655963        0.85613234778868
C            0.75086960964204        2.16899660462444        0.68561932459553
N            1.26019252622270        3.07016596166219        1.55374068805466
N           -0.31197794868806        2.55520554955824        0.03217508482397
C           -1.39980064420740        2.04012341745389       -0.43923380540196
C           -2.36188562577104        2.81841211863860       -1.13295381702110
C           -3.56480675618965        2.14503574742930       -1.10515833476656
C           -3.40619644355432        0.91420048552363       -0.44251177472844
C           -2.06366774854070        0.75310330261467       -0.09600066953376
C           -1.49553799352262       -0.47707091957833        0.25732020055709
C           -2.47012518989313       -1.42513816149397        0.68293568701827
N           -3.28839343375092       -2.08119793660425        1.14411644212741
C           -0.18582136044413       -0.94950395828573        0.11128950786086
H            1.88404567177407       -3.45287974635275       -0.65850446327587
H            2.19354300162620        2.96177490521613        1.91488655036350
H            0.81904829604458        3.97269463460291        1.61215106281528
H           -2.17231839946767        3.79424197675172       -1.53507068281742
H           -4.49117556767463        2.49916299369127       -1.51874575506664
H           -4.18117347323214        0.18686155734198       -0.28809535562748
