24
 energy: -49.338867220553 gnorm: 0.000807790047 xtb: 6.6.1 (8d0f1dd)
N           -4.14986121912873       -2.32056863319423        1.14679536197247
C           -3.39542028289424       -1.52492219748676        0.81014471036108
C           -2.47473785297895       -0.54666062957896        0.41519531468241
C           -2.68856130634889        0.82816204380306        0.38748547220962
C           -1.53726239380019        1.47822152161075       -0.09078606638793
C           -1.47865439396761        2.86919203053587       -0.25141936549470
N           -1.52437813595760        4.00949183905298       -0.37372722438778
C           -0.51976927367316        0.51447496429065       -0.31459886350757
C            0.83961260942835        0.80022157436817       -0.37254279020675
C            1.20386552416191        2.17197300290511       -0.50313675178650
N            1.57622119416443        3.24199110074691       -0.66981089585053
C            1.95390949541358       -0.02184188335542       -0.09750875452155
C            3.17859001074183        0.44898032095380        0.36034152648902
C            3.86973428372848       -0.66791668548792        0.87851817200931
N            3.20732382299742       -1.80054372642038        0.74512825316429
C            2.06481463093617       -1.51613996354666        0.08639817821438
N            1.39900332144742       -2.45487309514264       -0.49454209342192
C            0.22950456245149       -2.51501956497326       -1.06324975403637
N           -0.86277828097060       -1.95842329811830       -0.62889991292417
C           -1.18088171965084       -0.81349393742469       -0.12315201351971
H           -3.59518211957611        1.32594205402119        0.68074273970586
H            3.51958894704019        1.46571106106527        0.37600775735391
H            4.83645550920143       -0.65865224929285        1.34913455959831
H            0.10630079262977       -3.27014029962320       -1.83258818352882
