29
 energy: -56.769806195210 gnorm: 0.000797551149 xtb: 6.6.1 (8d0f1dd)
N           -4.19753359329614       -2.83884253559854       -0.00192871112940
C           -3.25180062453086       -2.19274058664536       -0.00037003420082
C           -2.03595689374864       -1.44342358481623       -0.00018491632548
C           -0.94149044566415       -2.30400097696206        0.00095468115381
C            0.44453169598257       -2.15037799722627        0.00189188818156
C            1.13362401289788       -3.40041424536536        0.00261080749836
N            1.63007905337294       -4.43235477328805        0.00380445745921
C            1.32730074499958       -1.06530248203689        0.00206673330315
N            2.63800306965835       -1.38196062078723        0.00298959315003
C            3.34182955598051       -0.25438074061139        0.00296608961084
N            4.67516481401744       -0.23641476229792        0.00370605772909
C            2.47142055134515        0.88730325707291        0.00197283697118
C            2.90574555272680        2.21046439693130        0.00148295539203
N            3.31755527846432        3.28362779217895        0.00202646675934
C            1.15733694887997        0.38899770133612        0.00144389072552
C            0.05901726020481        1.25629355625828        0.00046918822192
C           -1.30305951293057        1.09792356311277       -0.00038664245716
C           -2.13719782287378        2.26386832250772       -0.00132275478249
C           -1.67372275816691        3.58403244393184       -0.00134163972529
N           -1.29675311894779        4.66890991356466       -0.00152230712653
C           -3.47374710202033        1.87512661420971       -0.00214305238980
C           -3.52663797977960        0.48446012215451       -0.00178870452859
C           -2.23065134772335       -0.05056872351850       -0.00074376087823
H           -1.23562664742007       -3.35144478208524        0.00108945950975
H            5.16916634703078       -1.11199018104402        0.00432662383548
H            5.17992327675673        0.63259038624978        0.00370149499014
H            0.36590165986487        2.30132563313627        0.00033669468534
H           -4.31713538904797        2.54055614022005       -0.00291097104649
H           -4.43121597703254       -0.09482193998180       -0.00225886728644
