28
 energy: -52.238986027741 gnorm: 0.000440536554 xtb: 6.6.1 (8d0f1dd)
N            4.48287436352346       -1.98204462265301       -0.62237883919583
C            3.65979642441198       -1.19288949589087       -0.47873722429151
C            2.63473824436064       -0.26161875484093       -0.29270177937244
C            2.76398173648205        1.11631013114197       -0.30642714931529
C            1.50263616933764        1.68253524801637       -0.05132029847560
C            1.31736320983576        3.07096008059268       -0.08530919960251
N            1.27720534518107        4.21544735249326       -0.17243490150973
C            0.53758349311726        0.65228197552878        0.09908838681393
C           -0.82529845174265        0.93619857985902        0.29082388607815
C           -1.12179723127573        2.26416661089135        0.71633435105455
N           -1.42615996730485        3.26936085959508        1.17496615380143
C           -1.97391757138868        0.18396054479771        0.04319622104541
C           -3.23025462325305        0.77465271592841       -0.15829945248880
C           -4.09026558909617       -0.15830008266885       -0.74426258067631
C           -3.44258986046973       -1.37641409369838       -0.86149954268875
C           -2.14548456449250       -1.25797698701929       -0.31650951739789
N           -1.46133739334786       -2.31738471426485       -0.00969602738483
C           -0.27197544894430       -2.60244294918550        0.45787770942546
N           -0.19055102943283       -3.80668991527114        1.08016403151280
C            0.95117208320963       -1.92574550990459        0.22156711265897
C            1.26391422611434       -0.61218958457484       -0.03318982526713
H            3.66655116976869        1.67079586288288       -0.48569849560716
H           -3.47269330155377        1.80082405694997        0.04566472108092
H           -5.10097317031065        0.04477475925566       -1.04804532520805
H           -3.85359551230756       -2.29251920268565       -1.23868405382637
H            0.70026704251236       -4.21846751845323        1.29280766723950
H           -1.01508020619004       -4.38062114217165        1.11322344771931
H            1.81066563805401       -2.59051174274559        0.21380584357606
