28
 energy: -57.031845149789 gnorm: 0.000724715687 xtb: 6.6.1 (8d0f1dd)
N            1.56262346137657       -4.25920104191209       -0.16445140421052
C            1.15076963012276       -3.19102320904782       -0.15908976178062
C            0.59241651629141       -1.87829310305575       -0.16521756999968
C           -0.80266661535859       -1.87835894994460       -0.11373956360192
C           -1.80193911275362       -0.90992464697282       -0.00477609086771
C           -3.08508016392867       -1.53745092449764       -0.01462179064078
N           -4.06551955431595       -2.12676408507986       -0.06803062045708
C           -1.82167669236792        0.49419420231267        0.03051162323908
C           -2.99831997326004        1.24616748732747        0.13690542517329
C           -4.26490341332048        0.84331163098630        0.58080351929996
N           -5.31985435848556        0.62232486169739        0.97614611351825
C           -2.73268149622752        2.60656780239884       -0.21275468970792
C           -1.41258321385706        2.73886163667522       -0.52414208747941
C           -0.74940915650908        1.49078788601466       -0.30260594884499
N            0.53348131266779        1.46719178379680       -0.30306305637986
C            1.49340724123387        0.59747131346621       -0.11160936789374
C            2.82484755726213        1.00919856598554        0.08539213012766
C            3.32138147110778        2.30168246834093        0.23210126701647
N            3.78652371269300        3.34500015014358        0.35883970216502
C            3.61411012321623       -0.18446447524469        0.08987331370108
N            4.93572621950798       -0.26353675515823        0.23077345945126
N            2.85351442880373       -1.26950564753379       -0.08467551146768
C            1.57317734958631       -0.88167244179725       -0.15650364286052
H           -1.20931647866939       -2.88704393256131       -0.13827393644206
H           -3.48013992742254        3.37860036624251       -0.21322691272017
H           -0.89355373874326        3.63218477863396       -0.81213559930747
H            5.37189888970591       -1.16897326517477        0.19038741532741
H            5.49028079564013        0.56324701836452        0.37063457846316
