30
 energy: -61.269545118013 gnorm: 0.000531513691 xtb: 6.6.1 (8d0f1dd)
N           -2.19692983030008       -4.52919650797647        0.60083708015481
C           -2.30525072649173       -3.40019654366720        0.42655363311416
C           -2.43714961306548       -2.02233612604343        0.21538087619388
C           -3.61357255856993       -1.32045245429048        0.02886237837325
C           -3.30548149597279        0.04480783450356       -0.15519049126163
C           -4.30463458250470        0.98101402647429       -0.46083791924608
N           -5.18427152798277        1.65844388381320       -0.75161617863727
C           -1.90932378511892        0.23659278555760       -0.06850898673191
C           -1.30806325930456        1.49770743907169        0.03095671731903
C           -2.20768387304370        2.60094345299750        0.15229548613777
N           -2.84583367883770        3.54009141610134        0.29907332491068
C            0.00905371204834        1.95737649833377        0.09397034296777
C            1.29099429350790        1.39521843383793        0.08018066373900
C            2.26921293082238        2.43432796803702        0.02657121016465
N            2.97874377625637        3.33116049402786       -0.03254696682336
C            1.79546271523285        0.09175007987403        0.07606131329215
C            3.17227206762746       -0.20064776823591        0.03928779518162
C            4.28617068863859        0.63179307792902        0.19059424704653
N            5.29542322021647        1.16704808643488        0.31676940622053
C            3.35895123199656       -1.60729028798779       -0.14032609986709
N            4.54705429890539       -2.21229409168125       -0.23884233504702
C            2.09444926192831       -2.20345667282592       -0.18054779856517
C            1.10609158759882       -1.22605253676487       -0.01577057851326
N           -0.13613360378256       -1.61576931644767        0.07609276723010
C           -1.32476866268347       -1.11801711642089        0.09675179254470
H           -4.60579839731372       -1.73307374241105        0.01385340557893
H            0.05136265206054        3.04347483983318        0.14847143119203
H            5.39481473368622       -1.67604078574885       -0.15247104662111
H            4.60406034384692       -3.20878929319689       -0.35456909107240
H            1.88527593559391       -3.24863803832655       -0.30159760947639
