29
 energy: -56.762193754990 gnorm: 0.000990918262 xtb: 6.6.1 (8d0f1dd)
N            1.76125766637648        4.55033200096956        0.28319676542632
C            1.91062472727341        3.41775729475482        0.16109993178087
C            2.06759269901276        2.03468268613928        0.02138150055187
C            3.21765773979266        1.38472689540655       -0.40374541842238
C            2.96548584882011        0.00326020777674       -0.42300578770653
C            3.91495134728302       -0.92652179083904       -0.87065389383748
N            4.72651148208949       -1.61197645960396       -1.30524342181405
C            1.63543829016760       -0.24252584933987       -0.00327088380666
C            1.18819344534050       -1.52066685054527        0.36191950619319
C            2.17691367551935       -2.53048336602945        0.50816027706945
N            2.91186232658611       -3.38386846325641        0.72059194270394
C           -0.09053625640660       -2.01449497377184        0.68251397485000
N           -1.28129467690120       -1.59392444474327        0.38559676140223
C           -1.89161933165054       -0.48105730339912        0.14601555212133
C           -3.26318202278684       -0.45542792819175       -0.23676006794531
C           -4.03536071887930       -1.54529807134078       -0.64222467053472
N           -4.71898632918125       -2.40328689640492       -0.98453851493790
C           -3.75036795700859        0.85840483107706       -0.08503155060657
N           -5.00635701653738        1.26175191989043       -0.31716749745672
C           -2.67796416916545        1.67889772023248        0.34696613276552
C           -1.51263207202721        0.93059925205597        0.42164700508954
C           -0.25258556144491        1.52587705061725        0.49684794208985
C            1.02235263469660        1.07525871844293        0.22853508646758
H            4.14653769919818        1.85072224558953       -0.67698589127016
H           -0.10024609468763       -3.01223608202917        1.11800881215118
H           -5.28018356689218        2.21231625427691       -0.14226811140483
H           -5.69613104426916        0.60133737440477       -0.63337160492347
H           -2.75669215300683        2.73240456610871        0.54551011238354
H           -0.30432100449938        2.60442293596796        0.62651874335902
