28
 energy: -52.237958838868 gnorm: 0.000882478490 xtb: 6.6.1 (8d0f1dd)
N           -4.55021414930678        1.97022759513887       -0.02237292228555
C           -3.70559461285095        1.19080054737706       -0.03412926805097
C           -2.66091927744041        0.26136862061194       -0.04077045977060
C           -2.80798978873068       -1.11873958943965       -0.14634048003632
C           -1.53940968840619       -1.69975177096394       -0.09499937334241
C           -1.36438229795693       -3.07874412482761       -0.27833785973792
N           -1.33567742761906       -4.20648800406942       -0.49292331067319
C           -0.54840818149035       -0.67806142459833        0.01937945589815
C            0.80273487899563       -0.99065320220459        0.15840938627469
C            1.07595448838378       -2.34498366793576        0.51557878848186
N            1.36021191069271       -3.38002866775280        0.91710540766732
C            1.98537053338395       -0.24602158618763        0.01522439775678
C            3.24711606191352       -0.85335270260731       -0.04085914331355
C            4.17385408840649        0.16274418193336       -0.29340141785137
N            3.60547895591850        1.35462789956647       -0.36109064976050
C            2.27133070066286        1.19148340746979       -0.17037221194368
C            1.55715762641324        2.36314603965215       -0.09274987653679
C            0.21669650166123        2.71981943138321        0.12467591610692
N            0.00394208052763        4.05756315098247        0.28031935684317
C           -0.94395821041253        1.93493127959452        0.15358036460757
C           -1.27313102078656        0.59812275072199        0.03217607669865
H           -3.73468209151845       -1.65134840198471       -0.25499977970369
H            3.46163889702220       -1.89957141398668        0.05228324949698
H            5.23540310781457        0.05475716407729       -0.42337950121962
H            2.22200505436456        3.21428657914535       -0.20790953670112
H           -0.92586368728335        4.42327338629190        0.37836815777660
H            0.76817119571396        4.70535933330030        0.21431653470041
H           -1.83765198137228        2.55034643381297        0.24355923442032
