28
 energy: -57.025793834179 gnorm: 0.000774402822 xtb: 6.6.1 (8d0f1dd)
N            4.58506332332749        2.36055181641540        0.29797609082186
C            3.64326699602096        1.71286512345883        0.23755035457009
C            2.42609020270067        0.96908941805940        0.17672865772842
C            1.29459199793966        1.78890633553634        0.15202321738448
C           -0.08067914042647        1.59896578399346        0.02210897613717
C           -0.75534632831808        2.85347207282875        0.12494193842550
N           -1.22055797649731        3.89313430463658        0.24420329920289
C           -0.93147855212883        0.48420675159213       -0.09425883961456
C           -2.32485375051578        0.60285428726777       -0.18171061503485
C           -3.12370180217434        1.70606473959859       -0.50559792409080
N           -3.90286632229176        2.49759264696203       -0.79926363482972
C           -2.94069151754043       -0.67144902079468        0.04923759527893
N           -4.25661221260110       -0.89312465854982        0.07389138426501
C           -1.91717433431250       -1.61201672560439        0.23249867487270
C           -2.11953210628413       -2.97174591189442        0.48112080814344
N           -2.33779664696248       -4.08041739262185        0.68699274026233
C           -0.65288154929896       -0.97253784617351        0.06816919492227
N            0.40825682476979       -1.69789734808395       -0.04057081230466
C            1.69557013980839       -1.55414258474285       -0.12157899290518
C            2.55106513475950       -2.63352825801779       -0.41433535813908
C            3.84685971862926       -2.16128887154840       -0.25680627085591
N            3.88721991582214       -0.86239041045714        0.06054384516329
C            2.63250050397052       -0.40869378747908        0.10684917992864
H            1.55372020299115        2.84133959550304        0.24685421412709
H           -4.89887071360019       -0.14087911075298       -0.11416768150350
H           -4.61287922014088       -1.81818335842034        0.24569029345391
H            2.23624216150169       -3.62868816513475       -0.65386842174791
H            4.76382184085547       -2.71510787097378       -0.34518242946223
