31
 energy: -60.203990360382 gnorm: 0.000851092000 xtb: 6.6.1 (8d0f1dd)
N            5.24452484287243        0.80419542900159        1.23511919860025
C            4.28037135399519        0.26430623108934        0.92099334501338
C            3.10059979812649       -0.37765081365267        0.53691142302556
C            2.86282690352797       -1.74801907899434        0.50451823127803
C            1.56765191611786       -1.98722623449215        0.01517242241073
C            1.04961035865163       -3.28347229435278       -0.09254515119835
N            0.71392944540514       -4.38118116326866       -0.13030236859868
C            0.91621891676710       -0.74398431719792       -0.19620158442407
C           -0.45725391625546       -0.60465395635490       -0.39910725870393
C           -1.10501741248978       -1.76396579082436       -0.91020333944539
N           -1.59619987548155       -2.62200008328394       -1.49043072864746
C           -1.33076144229511        0.45573593538302       -0.08341555912902
C           -2.69035808868988        0.22124695905901        0.17177989495584
C           -3.42872800422842       -0.96487884158552        0.17443697246028
N           -4.16945466229423       -1.84003623030249        0.26504683955926
C           -3.31171605006594        1.43909054892926        0.61555998687611
N           -4.60352565573410        1.53500540810475        0.96933789364020
C           -2.35060045059642        2.43535173518344        0.58753110745737
C           -1.12124332768032        1.90636248188990        0.13635649305044
C           -0.09837148478487        2.75034201417907       -0.22633216006449
C            1.21233258697838        2.49520409348648       -0.70825418379608
N            1.79324140688929        3.44819199151433       -1.47630098581481
N            2.00754923783761        1.52848630840496       -0.34257456125495
C            1.94098237921191        0.29361008318662        0.04490283739303
H            3.55617507088003       -2.51341967751504        0.80285529592934
H           -4.96762434068787        2.39164719248799        1.34497586486970
H           -5.18086457917410        0.71120991352009        0.97017272218210
H           -2.51389728960932        3.46771562187001        0.83275070660831
H           -0.33010431055310        3.80557422500966       -0.13091914244812
H            2.77481552509545        3.36257964312369       -1.67792629994642
H            1.33342661566891        4.32382355170104       -1.64814226203651
