30
 energy: -50.896921005245 gnorm: 0.000510892510 xtb: 6.6.1 (8d0f1dd)
N           -4.80181143732675        1.70941911827624       -0.04979823545092
C           -3.94782808928950        0.93830183684501       -0.04074765149733
C           -2.89614389762411        0.02098528423748       -0.02557893816511
C           -3.03230947894987       -1.36623415200841       -0.01274836075655
C           -1.75636329984360       -1.92568479653757        0.00758223397369
C           -1.47251874334287       -3.29248673989045        0.02627315424601
N           -1.23194883545446       -4.41737725820312        0.04084718407364
C           -0.77353330318490       -0.88531203821010        0.00615379760880
C            0.56753107661332       -1.21820925523661        0.02248363716415
C            1.76207608311548       -0.51256700121931        0.01547307923762
C            2.97497692070025       -1.20400243003174        0.02009688674671
C            4.04616657836451       -0.29250058067107       -0.00513576262968
N            5.36299417010254       -0.61664362772483        0.03852330724826
C            3.50648530624046        0.99477046059930       -0.01888604596518
C            2.10190211073719        0.92791054694257       -0.00608106547518
C            1.36802781155909        2.09763785834700       -0.00545025689303
C            0.01502917941627        2.46569533399885       -0.00233405759990
N           -0.19553745237346        3.82856479652423       -0.05052676224227
C           -1.16291716670175        1.71124571068108       -0.01433939543004
C           -1.50778246563836        0.37214535719868       -0.01471514306597
H           -3.96018141880642       -1.90890500597437       -0.01716382766374
H            0.72644093908223       -2.29442759972725        0.03910436407348
H            3.07319129005339       -2.27411261493689        0.03716764097213
H            6.04202903282712        0.09416238506304       -0.17051410912561
H            5.62810332013379       -1.57034286616026       -0.13500534512877
H            4.07757950607518        1.90523703928487       -0.03797378672773
H            2.01835934842385        2.96997276079496       -0.01350174352543
H           -1.11981989547294        4.18031380532821        0.12951682538591
H            0.56588165565913        4.44711012414322        0.16796710079846
H           -2.04736617789509        2.34588753456777       -0.02753139978655
