27
 energy: -47.727895581775 gnorm: 0.000676487920 xtb: 6.6.1 (8d0f1dd)
N           -4.54070511585338        1.83116898567278       -0.01606079428165
C           -3.62259639949655        1.13777599564960       -0.00664975552800
C           -2.54247144965724        0.25576236921780        0.00061701138678
C           -2.68220660732249       -1.15778992827450        0.00349673724800
N           -3.84899042167275       -1.82712557702714        0.02276728834781
C           -1.39755456033710       -1.69917881565998        0.00453865197216
C           -0.43590389080997       -0.67376019358164        0.00250574270745
C            0.92975219587215       -0.98982563545063        0.00226698018962
C            1.17601200588236       -2.39508429063437        0.00392398569879
N            1.38229010292141       -3.52320011928313        0.00556071820238
C            2.11709808542904       -0.24797925746261       -0.00001075533055
C            3.38361145352309       -0.86286181095973        0.00083930790714
C            4.32661506374910        0.15766488951797       -0.00315185484542
N            3.76359028957691        1.36298937601936       -0.00661908490072
C            2.42567443922623        1.19713829871826       -0.00479835165241
C            1.68785994760214        2.36983144582442       -0.00643469428144
C            0.33960787998720        2.69014340157109       -0.00396852636152
C           -0.83155738534710        1.95194064813469       -0.00146484930560
C           -1.17106031556803        0.60280004304625        0.00019795144447
H           -3.85723480729010       -2.82963310004208       -0.03039470171254
H           -4.71909460685741       -1.32726645945763       -0.03087744105988
H           -1.18159580767077       -2.75098657780465        0.00663955059071
H            3.58470127785290       -1.91615801033569        0.00417978089682
H            5.39711184772776        0.05754760766589       -0.00343804053495
H            2.35215195019969        3.22768422824024       -0.00946254445043
H            0.15997870898799        3.75943377414322       -0.00456557746181
H           -1.72033418445507        2.57849154575220       -0.00093606038519
