31
 energy: -65.001419940668 gnorm: 0.000970309927 xtb: 6.6.1 (8d0f1dd)
N           -4.68266158610434        2.75464246399128        1.37840336263941
C           -4.11378203129824        1.82590143807560        1.01495593077311
C           -3.40259951654765        0.70525061006148        0.57370996482977
C           -3.88435027111639       -0.59951056051066        0.45488937835546
C           -2.87917583055078       -1.43931068016746       -0.04829957673990
C           -3.01594249964320       -2.81076273052364       -0.29198618747968
N           -3.15412382497470       -3.93126658469593       -0.49764664691537
C           -1.69145269417217       -0.68376603142000       -0.21862659714939
N           -0.53500448111558       -1.24489266235750       -0.38805263762807
C            0.70724033596718       -0.86667080089089       -0.23888586441013
C            1.71011313728482       -1.85943482365316       -0.22585688366316
C            1.55523237428783       -3.21278156517584       -0.53672391059922
N            1.51588034116693       -4.33345268486173       -0.78445617168073
C            2.93238948666477       -1.29830754561273        0.23327461544318
N            4.07509775601502       -1.96071884619497        0.41907726975286
C            2.71811386164029        0.08048049471126        0.46549943028546
C            3.73147581370853        0.89477080870226        0.98003494645056
N            4.62777172327290        1.44863947041381        1.43899576045215
C            1.39307254966455        0.42413903625754        0.09873046456935
C            0.99989833210707        1.73350491507947       -0.12932314674415
C            1.96354230330488        2.75937031249099        0.00511439049510
N            2.68357910016155        3.65255675187866        0.04727425145583
C           -0.27185808851540        2.23359710451078       -0.60326007930139
N           -0.26067523960670        3.32597776400208       -1.39288172111273
N           -1.44454035199860        1.83072183966205       -0.20756526391187
C           -2.06904933601448        0.74174009462725        0.07948021702009
H           -4.88084077158337       -0.91517843419287        0.70799884949860
H            4.88123701583892       -1.48378283180334        0.78856731871829
H            4.12729297747743       -2.94638216129262        0.22225052883716
H           -1.13750011152642        3.77729441104722       -1.59617064278023
H            0.59545439460455        3.82686789454440       -1.56458256816542
