31
 energy: -65.780952767930 gnorm: 0.000755885315 xtb: 6.6.1 (8d0f1dd)
N            2.86670582852637       -4.41345454467316       -0.43607412039722
C            2.27155301618224       -3.44729734471750       -0.28864081279552
C            1.46033673802356       -2.29035588686326       -0.08075053537965
C            0.16790178122086       -2.60691981679548        0.35090186232436
C           -1.02033743957918       -1.89773642056444        0.42196686556780
C           -2.08535838000809       -2.73121350525750        0.87952861642349
N           -2.86600063018452       -3.43076456580410        1.34066808295821
C           -1.40544214905485       -0.57052457653651        0.12236265792214
C           -2.75893622998975       -0.24605028084381       -0.08003247973077
C           -3.85691230417494       -1.09143768635467       -0.28615383484181
N           -4.82014261440517       -1.66658786446917       -0.53027686298719
C           -2.90375513848383        1.16701442820107       -0.17116690479865
N           -4.03460692092877        1.82946548906775       -0.41203866500635
C           -1.62340632273971        1.73155839014749        0.03808264876434
C           -1.43388852635335        3.11640424692353       -0.05487677412790
N           -1.42442845166001        4.25489133026397       -0.20415394969027
C           -0.66666360803144        0.69483399969116        0.16769965083586
C            0.69187584327495        1.00519957177796        0.33251524288917
C            0.92279991431279        2.29190659594394        0.89798504474526
N            1.10306724378106        3.23794064762561        1.51937260801576
C            1.85964713977428        0.31305760868345       -0.01315544639093
C            3.10007575895074        0.95760883041491       -0.23103500565016
C            3.43953661248406        2.31387958889862       -0.17362269916504
N            3.80411911093020        3.40195707677396       -0.19087597702613
C            3.99217923924156       -0.04083027590316       -0.68895039214218
N            3.43212781819421       -1.22995588893844       -0.70586789524045
C            2.14783938005734       -1.10042996992733       -0.30497769416419
H            0.05332632450972       -3.65871106040237        0.60080600885466
H           -4.89385687738953        1.32800438268756       -0.56783736536403
H           -4.03155806144169        2.83568622621500       -0.45578838922720
H            5.01181889936578        0.10347010784310       -0.99430016407534
