30
 energy: -61.271259987272 gnorm: 0.000958789594 xtb: 6.6.1 (8d0f1dd)
N            5.01447814730000       -1.03346346168364        1.09267057797660
C            3.92055182687985       -1.26016283422589        0.82830973757919
C            2.58500102659470       -1.51444206714306        0.49977206560551
C            1.93357640717060       -2.74651546477305        0.52110961081557
C            0.61426993840819       -2.58182669144801        0.06981879093444
C           -0.29302880187753       -3.64850379999591        0.01603640130601
N           -0.97255283857612       -4.57353059322788        0.02400074756133
C            0.37467489691693       -1.19995048575740       -0.16329680219007
C           -0.89151925493946       -0.64379842178584       -0.36057063337049
C           -1.85065130724914       -1.54540786914826       -0.90336485789924
N           -2.54444100975365       -2.22373918054215       -1.51237242379234
C           -1.38371235389621        0.62581059498683       -0.00840163749891
C           -2.75061004990481        0.82972094517014        0.28042441174026
C           -3.82843989127050       -0.05782688219460        0.17003032496979
N           -4.78125638231235       -0.69820861169838        0.14442959989545
C           -2.91989228558066        2.10998128649638        0.87212954696230
C           -1.70565397266722        2.73716352493250        0.92423694981928
C           -0.71397858647480        1.89629444981458        0.33708562038415
C            0.49893782100085        2.42574754849420       -0.05997999567580
C            0.73214362178976        3.79597554955042        0.19997644878236
N            0.96052158966721        4.90820798181702        0.36720159749705
C            1.60888691396016        1.78318075900335       -0.73462667106076
N            2.31615599798599        2.51008784576413       -1.61949431964094
N            2.08011078876402        0.62242897006183       -0.41395259681571
C            1.66934898801885       -0.52940400268847        0.02952877704654
H            2.36729642079349       -3.68083627394695        0.82700927035532
H           -3.86025642286427        2.49186619414817        1.22291500159206
H           -1.51423309860944        3.72636360694366        1.29513174480641
H            3.18142011639347        2.12999799709068       -1.96723108215317
H            2.13403371623083        3.49230424978171       -1.74193326043353
