28
 energy: -57.039856338053 gnorm: 0.000423396266 xtb: 6.6.1 (8d0f1dd)
N           -2.29497626260429       -4.16734393074717       -0.71915181900188
C           -2.28355348608384       -3.04813462562092       -0.46327048027977
C           -2.26403883667337       -1.68229797783357       -0.15992881650921
C           -3.35091336261264       -0.93858641097061        0.31141378852686
C           -2.95757882973310        0.39016592903205        0.48276621581422
C           -3.76517834894795        1.45300002468169        0.90201092165535
N           -4.42086117381478        2.33195843111886        1.24083442400072
C           -1.59581758888036        0.52186630382385        0.08391022893838
N           -1.07131021536647        1.68498923935464       -0.14110812177138
C            0.06742406892746        2.25174975072419       -0.40123509384777
N            0.00755828231816        3.42010156171116       -1.06876299044853
C            1.35723570841910        1.84070218228041        0.10123503987070
C            2.23471091039212        2.91028533920017        0.40703099889231
N            2.89129410007755        3.82684169747582        0.61685563393278
C            1.88015911734803        0.57403181684030        0.27823671776373
N            3.18351112834828        0.51649720172800        0.67743011524920
C            3.59260308355218       -0.72028156959948        0.54569272951554
C            2.56143025776410       -1.57568672938564        0.07533510089494
C            2.67021994160613       -2.94981168649568       -0.14716713318682
N            2.76516098966131       -4.07871447513488       -0.33477134716986
C            1.40823886840351       -0.77753785121691       -0.07197414154638
C            0.15991677929285       -1.34391455571157       -0.34219079809307
C           -1.11525888504730       -0.84249731519796       -0.23332890554702
H           -4.33493075630565       -1.32693407090273        0.50221437046291
H            0.81674295857203        4.01503533357059       -1.13585048120939
H           -0.89894516753036        3.79665281338671       -1.29353760012307
H            4.60213318155830       -1.00262346671471        0.78175341923470
H            0.20435600895841       -2.41528193899672       -0.52775554761785
