25
 energy: -47.482338776413 gnorm: 0.000787922262 xtb: 6.6.1 (8d0f1dd)
N           -0.51837068545960        3.51725985860280       -1.06517406573455
C           -0.27587153619039        2.44347769921037       -0.74854708054310
C            0.02001610014466        1.09516754299194       -0.40285327563845
C            1.37016707335504        0.87415607099488       -0.08009274800111
N            2.19726813629994        1.91383956445933       -0.02752123059092
C            3.36212667666141        1.42085550612669        0.43851730373760
N            3.39187315973471        0.13626140042162        0.69015278977555
C            2.14760065741106       -0.32338795519655        0.34880986616163
C            1.95141097752967       -1.66806074545859        0.28893756842915
C            0.82829761411456       -2.43701389098299       -0.15405855020708
N            1.12467837756832       -3.67652028285979       -0.62296007315179
N           -0.44028658843308       -2.19689479907588       -0.03381017257397
C           -1.24511204545297       -1.17259093034203        0.10785194006496
C           -2.58834183411027       -1.30941905653756        0.42727679164834
C           -3.19268398212711       -0.06444456776997        0.15928694263415
N           -4.48424465411653        0.25937089112431        0.27574197318710
N           -2.30592573124018        0.85118192367925       -0.28190177915612
C           -1.09917848633326        0.28392226643970       -0.25536284194901
H            4.21415174499537        2.05827847292711        0.58907890855126
H            2.82267852954659       -2.24941275664222        0.56893438159776
H            2.07539034525339       -3.97212251252172       -0.74776700140680
H            0.37259624956372       -4.26830364704773       -0.92846994298752
H           -3.08131114875191       -2.20338962583145        0.75063131735617
H           -5.14953053769275       -0.38513382883738        0.66168703179934
H           -4.76239037507036        1.19385413422602        0.03077726519736
