24
 energy: -44.546787862502 gnorm: 0.000418618110 xtb: 6.6.1 (8d0f1dd)
N            3.02324327726051       -3.05431343510642       -0.00287372346299
C            2.26686732376573       -2.19425671083478       -0.00166257424380
C            1.29111856878094       -1.15051081939835       -0.00138632698211
C           -0.00006849700405       -1.67840008516031       -0.00077011296984
C           -1.29125914801142       -1.15050649006458       -0.00000513211282
C           -2.26700462185982       -2.19425288115874        0.00008683478974
N           -3.02338090920348       -3.05429616483617        0.00088202391581
C           -1.84884591063299        0.13238293706484        0.00048344751361
C           -3.24025767178390        0.34478466283788        0.00123000810839
C           -3.43515905525242        1.72094669828275        0.00154019305292
N           -2.28409190219775        2.39184407295468        0.00101764226291
C           -1.27963296915025        1.49964582945767        0.00033972467295
C           -0.00006419022738        2.02616413683172       -0.00030358341697
C            1.27950623242893        1.49963938222681       -0.00105921869680
N            2.28396811158902        2.39183764039871       -0.00150770957509
C            3.43503412094097        1.72093559254327       -0.00214928266989
C            3.24012575856505        0.34477480634172       -0.00217364772160
C            1.84871090788887        0.13238165255750       -0.00152301906575
H           -0.00007058749971       -2.76680553577662       -0.00091596937611
H           -4.00140532888625       -0.41093441689215        0.00151510344321
H           -4.37110554186520        2.24928248827365        0.00211231694235
H           -0.00005872958927        3.11145175091906       -0.00017803109172
H            4.37098215318259        2.24926725831535       -0.00256594625183
H            4.00126780186128       -0.41094881417757       -0.00261587936461
