27
 energy: -52.510581515366 gnorm: 0.000865479957 xtb: 6.6.1 (8d0f1dd)
N           -4.42290001303576        1.71835348290326       -1.09325450661366
C           -3.58569860649367        0.98746201984408       -0.80430791154143
C           -2.55449522347903        0.11351772210874       -0.44797028300577
C           -2.62966124065848       -1.27135638828514       -0.33708547007298
C           -1.38924907787640       -1.77416308476772        0.08846694481073
C           -1.19516396181699       -3.14230210153275        0.32123187883159
N           -1.15713689192282       -4.27591558174108        0.49776531320495
C           -0.46066731351669       -0.70342544577317        0.18172275205208
C            0.91820111860580       -0.85702084556360        0.25307068227493
C            1.41264507344961       -2.16843812387039        0.52421878977131
N            1.82357167225764       -3.19898659438590        0.80597237652455
C            1.96990815812962        0.02503618873818       -0.06526662494683
N            3.16174575009483       -0.54015216106057       -0.25577758634194
C            4.01069231789799        0.40437419281542       -0.69988552787222
C            3.41214892632078        1.63983815495281       -0.78879664117200
C            2.06905614813734        1.48107369954333       -0.34747663942506
C            1.27562044433584        2.55153342865819       -0.03471540928741
C           -0.04359965179021        2.59320451706106        0.49933720004228
N           -0.39649263583590        3.69055676599005        1.20806108328289
N           -1.01752887594759        1.77181881744392        0.23144047812458
C           -1.24589228716683        0.53158874909016       -0.05893279415776
H           -3.50040888196972       -1.87026009956523       -0.53366957446565
H            5.02317157455192        0.13623655931587       -0.93967457884671
H            3.86404538856139        2.56360516505441       -1.09224878093091
H            1.72147206795112        3.52688649645934       -0.20014788125894
H           -1.36107462184641        3.80392029831678        1.46936738057965
H            0.23660480905728        4.46090369355326        1.32275196004040
