28
 energy: -56.258604182449 gnorm: 0.000855697348 xtb: 6.6.1 (8d0f1dd)
N            3.28811977705115       -3.35626497616873       -0.20143751124029
C            2.56764922478559       -2.46847736316564       -0.13057758951913
C            1.62778923121852       -1.40128491230538       -0.04075007406870
C            0.30785234078158       -1.84081844264145        0.04700232155808
C           -0.94884182092451       -1.24593269989003        0.08332877536625
C           -1.95825529564414       -2.24683737377444        0.20021704273467
N           -2.70263496949676       -3.10822131606430        0.33053655142094
C           -1.44089040983052        0.07459751049072        0.02901304104843
C           -2.80618011542064        0.36764533347056       -0.03916796546849
C           -3.94729119531434       -0.42452894212725       -0.16891384667038
N           -4.97663697744574       -0.92013715140823       -0.30069057243362
C           -2.91891597558045        1.80139277252680       -0.00734313780820
N           -4.05796283113550        2.49078994134859       -0.06098487193797
N           -1.72595856239479        2.37683726143709        0.08557268956227
C           -0.78770569450899        1.40771098882086        0.09094538009562
C            0.51542581090136        1.85324471252180        0.14688762099375
C            1.76642142049961        1.25150994171786        0.08501839210818
N            2.84454127973968        2.03590677704691        0.09372462686714
C            3.89893211087720        1.19942948290647       -0.01920131770901
N            5.15487620355603        1.63200061704818       -0.05270887744508
N            3.58221462183426       -0.10451661102411       -0.09620984963982
C            2.24922590243577       -0.14804391080109       -0.02962467159188
H            0.24599034003379       -2.92714799736354        0.07925752219851
H           -4.93820605863297        2.01091629933612       -0.14174141753203
H           -4.02412272831795        3.49489469544559       -0.03779941094844
H            0.57917927933118        2.93420691699535        0.20824941482680
H            5.89959566186801        0.96340249901857       -0.13871052252027
H            5.34001026783352        2.61671519860274        0.01367610175271
