28
 energy: -56.243858865328 gnorm: 0.000580932315 xtb: 6.6.1 (8d0f1dd)
N            2.90745106982861        3.91668776762063       -1.11578617059475
C            2.72349911671098        2.84273960600056       -0.75218449695371
C            2.50977177480187        1.53279451037720       -0.31565805740379
C            3.44945311295195        0.69407044610536        0.26676423538795
C            2.86957229047008       -0.55388760395262        0.57184221358211
C            3.52461885608901       -1.64855875073840        1.14160330588082
N            4.05689332607339       -2.55470866309110        1.60585155173865
C            1.53203451006037       -0.55453925768395        0.12449815857641
N            0.83726882691653       -1.62951246962520       -0.06337913373318
C           -0.36075448058277       -2.01235131758758       -0.38874716895356
N           -0.44023119573333       -3.19998437347547       -1.02827649244900
C           -1.60696757035040       -1.38517320943214       -0.01813806087665
C           -2.67932470868892       -2.28013122903005        0.20112976545655
N           -3.50942388906661       -3.05710626663253        0.35780678158590
C           -1.91879763787608       -0.04346586906660        0.07900800501950
N           -3.19273206175460        0.28606711018498        0.37489546855589
C           -3.30285458880235        1.61095162980758        0.28612532136530
N           -4.46390413335744        2.23067027233014        0.50230411935146
C           -2.06266426090141        2.22698738730111       -0.05982605820965
C           -1.13592833060002        1.21265056758242       -0.18875151689962
N            0.13703982960866        1.51129010547434       -0.42166494759125
C            1.23921386215455        0.86564387904209       -0.31296585661165
H            4.47759862389675        0.94927421142545        0.45435450063642
H            0.40658035962961       -3.72790290566617       -1.15946454205748
H           -1.32776856335999       -3.66319984431336       -1.12983899552479
H           -5.26966150883750        1.67600325743105        0.73423795997375
H           -4.54407350710270        3.22771469767578        0.41753291516581
H           -1.87325681347835        3.27471055513830       -0.17478133111744
