30
 energy: -55.699693772051 gnorm: 0.000993454959 xtb: 6.6.1 (8d0f1dd)
N            5.39924395541460        1.33813499647713       -0.44059983398650
C            4.40218599739614        0.78059825082792       -0.30166963555985
C            3.22117847034744        0.05900829753651       -0.13771632825888
C            3.16860928480402       -1.35931463419201       -0.05080923202687
N            4.22610358780582       -2.18347596673966       -0.12850563867794
C            1.83203686770301       -1.71694590159399        0.12669328944947
C            1.01887534492939       -0.57270938593277        0.12677648484326
C           -0.37446385010282       -0.69957367840449        0.20330886680213
C           -0.78676648567746       -2.03844561019650        0.46206208438558
N           -1.08550094289113       -3.10764687155932        0.75066323925819
C           -1.45454027079516        0.18931933949849        0.06671815977484
C           -2.78655166840854       -0.25177709179993       -0.06723791125456
C           -3.35193994826363       -1.51055456385102       -0.25837425493557
N           -3.96037832581391       -2.46462213851186       -0.46647597682907
C           -3.59916044343379        0.92283450949752       -0.08917282116500
N           -4.92929901820526        0.95644969119954       -0.22369986061861
N           -2.86131301828184        2.02335774991949        0.04922664847474
C           -1.56654697330504        1.65741407510745        0.11737903560763
C           -0.66956944843344        2.71184891798295        0.24445498796025
C            0.70505249881906        2.84876013937288        0.20198190277890
C            1.76574447687734        1.97056734205549        0.04242088474782
C            1.91844503651194        0.59152242580266       -0.01373513749585
H            4.10322599626087       -3.17620949919720       -0.04286125375180
H            5.14886995615069       -1.81165481995962       -0.26909476439942
H            1.48137633621011       -2.72752912004908        0.21595886150160
H           -5.39668314443454        1.84476768763509       -0.24588955252098
H           -5.44782404142709        0.10412061723231       -0.34359194776004
H           -1.21110053402500        3.64735460834489        0.33329924053992
H            1.02703339410504        3.88166624519375        0.27513998267431
H            2.72392632286121        2.47783888680278       -0.03559316425852
