31
 energy: -60.207652820470 gnorm: 0.000920522188 xtb: 6.6.1 (8d0f1dd)
N           -1.37214604546941        4.57350183455274        0.46266188526365
C           -0.95058310055541        3.51772880090403        0.31482977924984
C           -0.37392376717308        2.22364095315883        0.15527221746749
C            1.00742000362962        2.30700717755076        0.13146563697697
C            2.05153430235819        1.39186865054808       -0.03122808432911
C            3.32247696353358        2.02751189261563       -0.14996442279247
N            4.31065076012912        2.60008718029484       -0.24089453088660
C            2.14732884344001        0.00253699285716       -0.06649421973228
N            3.38889566194438       -0.48909827494067       -0.20825603076151
C            3.31684257250521       -1.81998007412335       -0.10698750154609
N            4.40366076528843       -2.58937320027263       -0.21464374659361
C            1.98220953106115       -2.24716657792609        0.11734705721607
C            1.18814689179442       -1.10897562145287        0.12297147227240
C           -0.22160879990662       -1.18084025144052        0.23809201229381
C           -0.63370918827378       -2.49783284488073        0.59369794978446
N           -0.88325538245750       -3.54716137312305        0.98392807942805
C           -1.26363461759912       -0.28092356206187        0.04922521902273
C           -2.60284079021954       -0.74026945340026       -0.08690159295412
C           -3.11065721780511       -2.03444210381495       -0.22084147691612
N           -3.68345815563053       -3.01627301219334       -0.39739349068084
C           -3.46602054329376        0.37088956274788       -0.22183191576668
N           -4.79144624801760        0.31374914041833       -0.40430894093781
C           -2.67757675012388        1.53415016090187       -0.13386730581413
C           -1.33802463088958        1.19637948281447        0.00713296832389
H            1.36887666967440        3.32924386125667        0.21949935179914
H            4.34511181484678       -3.58614304402703       -0.11397029733486
H            5.29130252732931       -2.14635450835048       -0.37590215494296
H            1.66411768868041       -3.26481055688621        0.22546056997486
H           -5.25019392017873       -0.57997894884438       -0.46060387223723
H           -5.33080107141214        1.15476236024770       -0.50541271803352
H           -3.06614182581010        2.53406453676930       -0.18398372161228
