30
 energy: -55.686731793813 gnorm: 0.000855964860 xtb: 6.6.1 (8d0f1dd)
N           -4.93893757317200       -1.71188646078207        0.05182661864618
C           -4.05682532941628       -0.97438292239269        0.03193827649842
C           -2.95930409897637       -0.11068742685922        0.00690323422966
C           -3.00752984152383        1.26335476032484       -0.10272873091099
C           -1.68706642267830        1.75788918505734       -0.09293151959159
C           -1.44688754279863        3.12767655344802       -0.26860918968860
N           -1.39489372213667        4.25730589319125       -0.47012051425839
C           -0.77542647399844        0.68262015330551        0.01339990538568
C            0.60784064316256        0.88668846445033        0.12494642806337
C            1.02545852617578        2.23204188995882        0.35631263826152
N            1.38197564771681        3.28787058081051        0.62177264443949
C            1.72087263518864        0.04698982011763        0.05441896860277
N            2.90858674036887        0.67389732311514        0.07585765984091
C            3.86948336803603       -0.24722480243437       -0.07874796950624
N            5.16141015340642        0.10674837502158       -0.09840285797033
C            3.32066022411141       -1.54169227291097       -0.18700873411628
C            1.93642426087655       -1.41149843276148       -0.08960223727236
C            1.11503519626694       -2.53569990562603       -0.07281023375350
C           -0.24489135905437       -2.77409335815024        0.06868573025491
N           -0.59911306196624       -4.09522299335960        0.17256783873089
C           -1.34816352769163       -1.89171947920715        0.12441818962675
C           -1.58100284673118       -0.54308528020514        0.05240462550623
H           -3.89251098137696        1.86706746633849       -0.18662403636165
H            5.38422021755632        1.08467582773056       -0.03847711851611
H            5.88168749160062       -0.56292076954712       -0.29556132930160
H            3.87179463140257       -2.45487444031913       -0.30190364831320
H            1.69422600580091       -3.45226744156551       -0.15494440589766
H            0.08580663750011       -4.81068185147150        0.00712885402953
H           -1.56586782175819       -4.36197150647869        0.11688649648084
H           -2.28196705449231       -2.44700086229926        0.19897023546108
