28
 energy: -52.237321136130 gnorm: 0.000867281817 xtb: 6.6.1 (8d0f1dd)
N           -0.02089967832952       -4.48202388884966        0.22996456761365
C            0.45177011511026       -3.43810319996325        0.16005160094483
C            1.04305372073884       -2.17267080123799        0.07589755456627
C            2.40007499183222       -1.90722086575558       -0.02838061249621
C            2.58260606850880       -0.51569614439576       -0.08957233777491
C            3.86129934177007        0.03133670376473       -0.26574941141107
N            4.94626010233788        0.36203620752332       -0.44576325392779
C            1.32633376895580        0.14078598822775       -0.02141800751999
C            1.20808421897383        1.53260433587324        0.05314157055957
C            2.42762180037258        2.26150117016247        0.18733386271521
N            3.32619857131544        2.95538664424720        0.34402106925389
C            0.13407502006541        2.43548283820352        0.05036484597681
C           -1.24385321185597        2.33483531901411       -0.00374003545199
C           -2.15349589225566        1.28419689286065       -0.00215380798896
C           -3.52650004390525        1.51980529459069       -0.04553548698915
C           -4.22956724752507        0.29771588037611       -0.04647026480472
N           -5.56634222212784        0.15712823653827       -0.08594261689718
C           -3.28785775602492       -0.74163637779018       -0.00125336729139
C           -1.99685733142392       -0.20160056616255        0.03013794601437
N           -0.98273013420307       -1.02064440045323        0.07442907370934
C            0.31318386777028       -0.93948425857939        0.05128711009349
H            3.18991077153903       -2.63521678085959       -0.06413650138929
H            0.47842465816415        3.46497147727580        0.09067867546101
H           -1.73511648810809        3.30294206652681       -0.04259049376311
H           -3.98560318641531        2.49225936958289       -0.06745455765081
H           -5.98136641176554       -0.75662024066907       -0.07098374725360
H           -6.16474943143946        0.96191950985013       -0.11150665495456
H           -3.49640140107475       -1.79402453730106        0.00418360015629
