28
 energy: -57.031296826551 gnorm: 0.000733476505 xtb: 6.6.1 (8d0f1dd)
N           -5.14652667933867        0.01286735902978       -1.21437182388044
C           -4.10607866932942        0.38446549171647       -0.90057768962445
C           -2.82942175773137        0.79939923394836       -0.50843454100405
C           -2.40116108475160        2.09518127067225       -0.31905455408633
C           -1.05674397875239        2.07158226627973        0.11753108428430
C           -0.35632713589563        3.26795824133204        0.33116561300748
N            0.10633630070976        4.30942170148857        0.46645511480628
C           -0.59745590141138        0.73712718846697        0.17862779433658
C            0.76180570569577        0.42365131336324        0.35191530320059
C            1.58537388623329        1.45710562798751        0.87990565636826
N            2.25874593742679        2.19116018010100        1.44596252116824
C            1.46964763885912       -0.71882105264156       -0.03043016831570
C            2.82849041437582       -0.75581430025140       -0.41635247806850
C            3.80284544605892        0.24632624046320       -0.39226044797267
N            4.64936740989590        1.02108549497322       -0.42683781156858
C            3.02646627897590       -2.02536803547646       -1.00595444927576
N            1.96316558003491       -2.80777416522237       -0.92428865299554
C            1.00181974660072       -2.10706413323375       -0.30350796466894
N           -0.02289295534934       -2.72806945577914        0.19690822538206
C           -1.21701285201258       -2.46364769849197        0.61645743866481
N           -1.77732324281885       -3.33843897835593        1.46951122001944
C           -2.05688085937540       -1.41504833890991        0.09731382714340
C           -1.76418288576635       -0.10913087002308       -0.14510758459337
H           -2.97679638336892        2.98799630339324       -0.48048746174137
H            3.92809914496959       -2.36641535839866       -1.48158059249689
H           -2.74984469439958       -3.27604513053183        1.71378945889717
H           -1.24471492316714       -4.14178033082819        1.75952855160565
H           -3.08158667067013       -1.71563164557100       -0.09690680449086
