29
 energy: -56.764952886974 gnorm: 0.000814264175 xtb: 6.6.1 (8d0f1dd)
N           -3.85929555548194        3.51275441159873       -0.50746740891288
C           -3.48269740124541        2.44790673773848       -0.29656072087138
C           -2.99907521322687        1.15998988275276       -0.05140033918438
C           -3.73199438826976        0.09150380499966        0.47421467085429
C           -2.90484739688559       -1.03183026363094        0.55683889932133
C           -3.27374962870516       -2.30859187742762        0.99226498420080
N           -3.57027812194491       -3.36049960919471        1.34497054506411
C           -1.61588500275893       -0.68553150117702        0.05999393401659
N           -0.74203332037028       -1.58812431437463       -0.27838804727203
C            0.49766441821859       -1.68881199871411       -0.63124956192364
N            0.81097120666042       -2.74124424329538       -1.41512071007577
C            1.60074357653314       -0.88971419959568       -0.11761079934904
C            2.73543563806920       -1.69618904701622        0.14211796684770
N            3.59027309748072       -2.44967424012720        0.28006068642249
C            1.67363115917145        0.47152732023157        0.08567912281479
C            2.89887085539680        1.11310327106783        0.47961401975020
C            4.04933440615476        0.52408002537224        1.01577548426221
N            5.01795456365369        0.13653068260646        1.49583522609237
C            2.78886070019840        2.47893204525145        0.23181172310179
C            1.50981323116966        2.74581296093060       -0.25093381937503
C            0.75576108114634        1.56510340907818       -0.30022728632379
C           -0.62407046103631        1.64172832369842       -0.48544815311703
C           -1.64698788592938        0.74957958002872       -0.24785175323768
H           -4.76786878978978        0.12519710932931        0.75888407247891
H            1.76889434912890       -3.02461893829060       -1.53872384691323
H            0.08088093823197       -3.40122328491034       -1.62973305344160
H            3.56664368389376        3.19992909719230        0.40287699788304
H            1.13027145804139        3.72048462946117       -0.49574696960594
H           -0.96757995370514        2.65162076061994       -0.69470375270952
