29
 energy: -55.960765959156 gnorm: 0.000734426234 xtb: 6.6.1 (8d0f1dd)
N            3.30631320599846       -3.31109168353619       -0.06370142343484
C            2.58185035829776       -2.42354691350310       -0.05592133550661
C            1.63189196897795       -1.36078789986998       -0.04852322045382
C            0.31221569864630       -1.81128462664638       -0.03806338382377
C           -0.94767444030573       -1.21546311108253       -0.00303039659125
C           -1.95209232159811       -2.22817948087075       -0.02021301654361
N           -2.67792405534552       -3.11471386893770       -0.05099519011751
C           -1.42290861129367        0.10778425886575        0.01739311790058
C           -2.78743079981490        0.40714834098582        0.05122756964516
C           -3.91399419699093       -0.41066077559097        0.17538837118822
N           -4.94469237237152       -0.90998563749890        0.28616418101544
C           -2.97832513622408        1.83253026940388       -0.04003445384719
N           -4.18149341066712        2.42387381763133       -0.04155488021745
C           -1.73002746581002        2.42422584349434       -0.12013880182471
C           -0.72410037787293        1.43776411067621       -0.06241177371555
N            0.50795517365282        1.84432087262658       -0.05418718986733
C            1.70023634627934        1.29650607152897       -0.01088272703122
C            2.83941444322977        2.09724375678335        0.05210964109780
C            3.94776968434635        1.22862208063569        0.04078426451404
N            5.24534787403933        1.54951906612866        0.07727760587176
N            3.56916615209649       -0.06408341218983       -0.01930283262932
C            2.23475517244994       -0.10010737080191       -0.03816930247712
H            0.25276076818000       -2.89757007334280       -0.05528431539002
H           -5.01390864411982        1.86492876162542        0.04409270495080
H           -4.25982629672368        3.42292006512630       -0.10194672338496
H           -1.52344860218962        3.47385652983540       -0.19265090651300
H            2.85647601761876        3.16703946365997        0.09110512125416
H            5.92178192388440        0.80652262179792        0.05324198497686
H            5.54353000702994        2.50588312846501        0.12839963405460
