26
 energy: -52.799324250485 gnorm: 0.000939728762 xtb: 6.6.1 (8d0f1dd)
N           -4.22050955631408        2.42728678846361        1.44296584535049
C           -3.52963193328998        1.60996603561950        1.02748334369516
C           -2.68492424482127        0.60586026584920        0.54344772714110
C           -2.95800854917741       -0.76454745533108        0.51891834046393
C           -1.88973974856331       -1.45691066501684       -0.06391680998585
C           -1.89736453554198       -2.84419129375556       -0.24962392807135
N           -1.99161412969926       -3.97990390812223       -0.39260754134801
C           -0.84761860107764       -0.53038410100292       -0.35247308933294
C            0.48705671049849       -0.86227039487797       -0.49621347169224
C            0.80083266866473       -2.24263941453298       -0.64301079886810
N            1.14292377468780       -3.32221769100579       -0.81760972528132
C            1.65671364164843       -0.07928687421507       -0.28067983778661
C            2.86441416226966       -0.60431944968201        0.11600422070160
C            3.66946317494550        0.50228820172332        0.54537243685679
N            4.89487873631769        0.42439327492387        1.05897805769868
N            3.04659634230483        1.67121491955632        0.39142066162667
C            1.85901873945841        1.41672249423240       -0.16926765226688
N            1.18556452881096        2.36458100063849       -0.73339901056411
C           -0.03458053350611        2.44895540536840       -1.18188695788677
N           -1.10625682268944        1.95102657576740       -0.64250248492414
C           -1.43969945903823        0.82512166126321       -0.10266060375434
H           -3.85814329314494       -1.22395557137210        0.88634656928751
H            3.15059504750550       -1.63674645736914        0.16551513016669
H            5.38005689511628       -0.45343575490762        1.11519877405808
H            5.35396731618950        1.27499561430317        1.33747508329244
H           -0.20064986574421        3.18545509724563       -1.96269167867968
