29
 energy: -61.546233755314 gnorm: 0.000925363470 xtb: 6.6.1 (8d0f1dd)
N           -1.20493548531326        4.51673692990354       -0.53198085069986
C           -1.49134626165414        3.42280307980535       -0.34053385500363
C           -1.87415272499993        2.09436838602415       -0.11220262514883
C           -3.13561345219158        1.67700785871610        0.32656375374354
C           -3.14062472575069        0.28760229324253        0.45669128295791
C           -4.22612298824645       -0.43126308490671        0.97678936702301
N           -5.12776270663371       -0.95192439828953        1.45972162592314
C           -1.88492396793380       -0.23348048431559        0.02341256357926
C           -1.69871046994774       -1.55474464936901       -0.33556372673384
C           -2.81487009738825       -2.43256549529540       -0.30701361872332
N           -3.66280220010642       -3.20131135164386       -0.35723741708412
C           -0.54390754893879       -2.20312956981669       -0.87798366006927
N            0.69926561220234       -2.00512704065912       -0.63448713192797
C            1.49550120517608       -1.06400886570612       -0.23630616641594
C            2.82325122983282       -1.28401117620207        0.18383892258656
C            3.40172685526282       -2.51660283569796        0.49923772694228
N            3.91711618090673       -3.50639269109252        0.77052991586513
C            3.51599377430639       -0.04605183180110        0.20452762277216
N            4.80041901732462        0.12687807181813        0.51575974863139
C            2.60676260998183        0.98348532550665       -0.16676150045033
C            2.96811224755413        2.32833035067491       -0.28012511557766
N            3.33850377171402        3.41296712520567       -0.35084378330381
C            1.32440242389145        0.42371540348541       -0.34631743537296
N            0.25727609700006        1.16381486173502       -0.39732534296626
C           -1.01955911404948        0.96730988172758       -0.24050372933420
H           -3.96533868756775        2.32372367622494        0.54747735353423
H           -0.74170087840680       -3.08992624967767       -1.47525805590971
H            5.36863366864252       -0.65962985259144        0.78442006199664
H            5.21121204421358        1.04536725720094        0.47739496398541
