28
 energy: -51.448419084559 gnorm: 0.000811525489 xtb: 6.6.1 (8d0f1dd)
N            4.89927107326722        1.75594460179033        0.04881022479191
C            3.97129697155336        1.07476285839250        0.03358482815507
C            2.87703441422507        0.21369738374054        0.01487973294216
C            2.97142445631849       -1.19042209321781        0.00201509193139
N            4.10636989000164       -1.90805585007787        0.00293613361914
C            1.65853479801530       -1.70683860948542       -0.01624526804256
C            0.73636051154599       -0.66933951710946       -0.01630027381662
C           -0.64975546342613       -0.92699446218891       -0.02938554156059
C           -0.98995667457445       -2.31068037801810       -0.03918987461073
N           -1.22693863310012       -3.43251704645644       -0.04775663575571
C           -1.78220125350459       -0.12103820938222       -0.02496772351527
N           -2.96522761663455       -0.76586952856455       -0.02690948479375
C           -3.93647057977234        0.15403477757260        0.00241079786429
N           -5.22601154188390       -0.20747515037453        0.01158317121503
C           -3.41287040198777        1.46816930933878        0.02030907831153
C           -2.03007695508801        1.35317533140909       -0.00255914045967
N           -1.28695392641026        2.45033617140090       -0.01322684015488
C           -0.01574409683789        2.68872829393844       -0.02069657500175
C            1.17475056290623        1.93215020197475       -0.00009191020644
C            1.50226791032598        0.59611281376144        0.00245559726813
H            4.07351750944058       -2.91141728151254        0.00023607982102
H            4.99731573899395       -1.44334780534853        0.02242666416055
H            1.41715587205887       -2.75323138447182       -0.02834093323140
H           -5.44910736210667       -1.18703124004624       -0.01109942143244
H           -5.95750578460319        0.47889333080943        0.02799219619603
H           -3.96826024606756        2.38378993573795        0.04188582304227
H            0.17488397318356        3.76247542700678       -0.04149722082738
H            2.05466049015748        2.57013063559256        0.01017233069139
