28
 energy: -57.029291469811 gnorm: 0.000714966435 xtb: 6.6.1 (8d0f1dd)
N           -3.62426457602355       -3.43947987784515        0.26580002344353
C           -2.87704299100369       -2.57713638654832        0.17509010236123
C           -1.89820054951588       -1.54596213217713        0.05899421734405
C           -0.61151986058028       -2.02331182668592       -0.14561549466246
C            0.66772953214195       -1.45769751493091       -0.18474265499441
C            1.62353536206044       -2.48940590283918       -0.43950357583576
N            2.29810990614039       -3.36989994064315       -0.72484831617051
C            1.21542321067523       -0.17512738711214       -0.03641056992359
C            2.60659916229533       -0.00024031278381        0.10470776608424
C            3.62592051788939       -0.93426334973699        0.32396943296484
N            4.56396791663420       -1.55416510697673        0.56137774962871
C            2.91728460872026        1.39107982377196        0.10012430718618
N            4.14094866504382        1.90834994085416        0.23382095610671
C            1.71272651739816        2.08833557472164       -0.06401746881856
C            0.64265961896426        1.19241908276632       -0.10617329778738
C           -0.66901765151761        1.68045045689961       -0.18608841872809
C           -0.77217944595534        3.09334015295421       -0.36405545188537
N           -0.82978304564068        4.22440046982830       -0.53606939578929
C           -1.92944162561310        1.10287902627426       -0.04068849708767
N           -2.99207551829739        1.93261809252418        0.01006912814920
C           -4.04174686727928        1.15185336659659        0.22266495652342
N           -3.78019010980910       -0.15300296211067        0.29694652250586
C           -2.45494279242507       -0.26275435611496        0.13128082913809
H           -0.58493597113176       -3.10497795136126       -0.25969717217430
H            4.27877450329040        2.90395627369400        0.22895596303165
H            4.93275450860721        1.30051002690495        0.36670340123807
H            1.62532028099148        3.15696594947881       -0.11667844423876
H           -5.03604692126070        1.54202139929757        0.32673070799033
