30
 energy: -62.054765439115 gnorm: 0.000533937598 xtb: 6.6.1 (8d0f1dd)
N            0.03378287956932        5.08666404324727       -0.41716874234654
C            0.04567527213069        3.95147280286459       -0.27034943260267
C           -0.00345188040281        2.53680927645884       -0.07561075990491
C           -1.27684786597993        2.14514002034629        0.35405619698505
C           -1.95393499834525        0.93283487035361        0.36535216838072
C           -3.29070668179927        1.09642199799524        0.83977890736195
N           -4.30778079310470        1.29277486804947        1.32723296426018
C           -1.61009964861294       -0.37410349670579       -0.02511824516471
C           -2.60810264605745       -1.33916065845593       -0.33761641310329
C           -3.97658823537313       -1.11440448138596       -0.55656998946591
N           -5.08842382859010       -0.99508500468113       -0.81176825343805
C           -2.00272957348135       -2.58092198093240       -0.54527536690612
C           -0.63524025089215       -2.44534844304505       -0.29638218368173
C            0.27243233407955       -3.49827225088789       -0.49547772260241
N            0.95001089105295       -4.39113033338089       -0.73898328191958
C           -0.33985633231181       -1.07894052922863       -0.01508480288129
C            0.98149839582562       -0.67766530873893        0.25121352133641
C            1.76441993638628       -1.71631943600225        0.83630928816446
N            2.29592894566865       -2.48583867213206        1.49805372957685
C            1.66303916400615        0.51963440215499        0.02284443076451
C            3.07994482945904        0.54513314275559       -0.10228283001105
C            4.00617951903550       -0.49924398459124        0.03518620105731
N            4.85069417837856       -1.27422177201787        0.08892279093682
C            3.48281511120757        1.82096620567528       -0.54174193154482
C            2.36594754976200        2.62159389228969       -0.64194259398844
C            1.21158358382067        1.88161051023813       -0.28289080678369
H           -1.90591651748139        2.98591491594487        0.63579924055759
H           -2.50052909283348       -3.48283231816475       -0.84768714513194
H            4.49702793304037        2.10112475503314       -0.75543565598443
H            2.36271316144309        3.65691842714215       -0.92778883772013
