24
 energy: -48.552556306277 gnorm: 0.000743958828 xtb: 6.6.1 (8d0f1dd)
N            1.72393276522576        3.85173631343742       -1.68933762336864
C            1.68977284968644        2.82987501696176       -1.16596734070481
C            1.65564272740500        1.58402646754737       -0.53417419226687
C            2.72325250168450        0.95985603297172        0.11804458845945
C            2.33179403530839       -0.27923133521538        0.64406217189127
C            3.13402717962959       -1.16656362611710        1.36588691042396
N            3.79167871497716       -1.89739817317761        1.95963330619567
C            1.00238491851686       -0.53457757067194        0.21767804562291
N            0.48568002113874       -1.69915903081456        0.05349983163136
C           -0.67344452189955       -2.15652360104120       -0.39557654012487
N           -0.61274691381290       -3.23808997522393       -1.19658796724170
N           -1.87895273542521       -1.80806638056800        0.02517965638458
C           -2.42489628609840       -0.66175965629841        0.23180779100115
N           -3.66612722607179       -0.55987287043147        0.72575641933346
C           -3.95769286485470        0.72950335731516        0.82631451727970
C           -2.91671496127773        1.57708097159240        0.42244326098081
C           -1.88348551930829        0.75638574999989       -0.01905012872992
N           -0.71351821645545        1.21768282136074       -0.37567624110642
C            0.49230248718212        0.77867781821757       -0.36085982805509
H            3.71113996499984        1.37621138149778        0.20970919635392
H           -1.46192959682505       -3.74628649658337       -1.37618228453888
H            0.27492175613638       -3.68688203578372       -1.34444593374440
H           -4.93122326951979        1.02933496291948        1.17260100068128
H           -2.91065441373936        2.64851151461075        0.43236994214493
