29
 energy: -56.755025743159 gnorm: 0.000274383461 xtb: 6.6.1 (8d0f1dd)
N            4.55022277599668        2.46344940084075        0.14494673849713
C            3.61799575346110        1.80018946554041        0.09006965471248
C            2.43019011570913        1.01071222388476        0.02484067077643
C            1.29490043515097        1.82436589298552       -0.05614466251979
C           -0.08482077600544        1.62083372664173       -0.07671857172893
C           -0.74811587084985        2.87995501964070       -0.18955147760851
N           -1.17979643488706        3.93366015926851       -0.31457415486792
C           -0.92258061248074        0.49563802659702       -0.01828808690772
C           -2.32944678369497        0.61013950876469        0.03707186324313
C           -3.15436261379251        1.73647534835586        0.13663981471318
N           -3.96973746651683        2.53937863116493        0.24508784293722
C           -2.92443194964731       -0.68132174033311        0.02783488613857
N           -4.23652308968974       -0.93817273017233        0.07667480269051
C           -1.88040636590912       -1.62542076776697       -0.04058154255061
C           -2.06922196902038       -3.00883246656308       -0.07597137071088
N           -2.28442526458330       -4.13689232634288       -0.10346064520685
C           -0.62815207776723       -0.95315654146238       -0.05045711790626
N            0.44234348800275       -1.70051357453567       -0.08166682203986
C            1.72759260666030       -1.53984354694307       -0.04651038603571
C            2.55043724192507       -2.68904129853578       -0.04846785435724
C            3.87736503560032       -2.30382728061707        0.03717396971719
C            3.94712675540665       -0.90912360368637        0.08928262662136
C            2.65703855353236       -0.36544823734301        0.03233267989191
H            1.55174028443692        2.88078388940448       -0.09743796294282
H           -4.89572159599654       -0.17986335935461        0.13467040386235
H           -4.56780388559753       -1.88751099716320        0.07030827448229
H            2.16519233162329       -3.68891490300355       -0.10059915617504
H            4.72465952674590       -2.96443356783386        0.06068458279385
H            4.85391310998708       -0.33574803603239        0.15688454368051
