28
 energy: -52.240407142458 gnorm: 0.000699166524 xtb: 6.6.1 (8d0f1dd)
N           -3.95507504537351       -2.71810981870667       -0.02811296622895
C           -3.05147383201152       -2.01352797488723       -0.01898979433372
C           -1.87867425569014       -1.19889696123143       -0.00928308705028
C           -0.74422397393418       -1.99885258506107       -0.02753105938897
C            0.63159402254768       -1.76172245843160       -0.01139645294320
C            1.39227104417833       -2.96949531299709       -0.01487472806436
N            1.94388933602912       -3.97331960219420       -0.02210784273207
C            1.44822501884972       -0.63173427494169        0.01029794714568
N            2.77166120914981       -0.88397627983790        0.03516645725406
C            3.41426408164064        0.28411806250271        0.04004047096407
N            4.75051731901883        0.35296493418113        0.08591069461689
C            2.49989354630362        1.36987416428882        0.01279904336656
C            1.22210065383757        0.82317636508713       -0.00353367398535
C            0.05897030801498        1.63492846623141       -0.02731854065496
C            0.40144302375077        3.02123402714567       -0.07173478181937
N            0.70848778094901        4.12479640478762       -0.11496871774575
C           -1.30327725541962        1.40142753051645       -0.00747992214014
C           -2.21037432409424        2.50058901131837        0.00355990135299
C           -3.50189137452191        2.03407651478827        0.04195309815147
C           -3.47101205273269        0.63138144889140        0.04628072811521
C           -2.15131063708151        0.18255957274173        0.01527709417096
H           -0.97729133317766       -3.06106655623103       -0.04877077933548
H            5.27339337537861       -0.50475780253021        0.05696864075901
H            5.22470174999525        1.23463566531674        0.01343424717940
H            2.76571137794293        2.40848679570317        0.01002359453398
H           -1.91494814058081        3.53254011563947       -0.00812053775877
H           -4.39187157404503        2.63494025311496        0.06439166877279
H           -4.33767765362404       -0.00266770180490        0.06974385389828
