29
 energy: -55.971685122552 gnorm: 0.000401754213 xtb: 6.6.1 (8d0f1dd)
N            5.17225908358468        1.43650351264999        0.94690090488780
C            4.22850534985131        0.86351160769225        0.62489193869644
C            3.12155512306162        0.10341244580611        0.25248198889918
C            3.11932229423373       -1.31412003034232        0.15578426951117
N            4.16529061893485       -2.10547483647683        0.42849965801281
C            1.84635159973583       -1.72852441995083       -0.26804755291373
C            1.00237627146800       -0.62198678191081       -0.36791870295189
C           -0.39131023758268       -0.73626030865667       -0.42594706822025
C           -0.81907756933038       -2.07478433368560       -0.64618946593525
N           -1.10473251541132       -3.15400256510175       -0.90978532056012
C           -1.43215181519407        0.17401898842677       -0.16291380259201
C           -2.74887604883426       -0.23607240148680        0.09694535343338
C           -3.35053742781312       -1.48852246546233        0.19365832180734
N           -3.98606252576902       -2.43759300248484        0.33412622102978
C           -3.49903232927852        0.95686875860929        0.37103939980583
N           -4.79373750335980        1.00167402551982        0.69405889581449
N           -2.74296982822223        2.04326840575776        0.26034250226830
C           -1.49343245152826        1.65393286566235       -0.06557861566719
C           -0.61491781772516        2.66175633614671       -0.41892812268698
C            0.73386106041127        2.65345693914314       -0.77348167406824
N            1.69199317091192        1.82910431429019       -0.48731707421857
C            1.85854490465704        0.58752042259366       -0.15546603026144
H            4.10285749739655       -3.09839585977212        0.28994273814326
H            5.03202989656819       -1.70397217085626        0.74281269244657
H            1.56026720502690       -2.75065165372287       -0.43088299059330
H           -5.22253036874695        1.89132600668433        0.87720974136209
H           -5.32926262141843        0.15330843748140        0.75817141111504
H           -1.09212922699734        3.63377057297372       -0.43971667900692
H            1.10042653956227        3.55828012897896       -1.25423431726080
