31
 energy: -59.424647952400 gnorm: 0.000818422921 xtb: 6.6.1 (8d0f1dd)
N           -5.16360202888678        0.92302792683432        1.30292406097402
C           -4.21246823467811        0.38652661268175        0.93660588098585
C           -3.07632199269320       -0.28078318806728        0.49292939652642
C           -2.99220450717858       -1.65998100329847        0.23420578641075
N           -3.97300630080159       -2.56002578525661        0.40852695318275
C           -1.69217043018412       -1.93495312302225       -0.24344473709568
C           -0.92971521681201       -0.77392081153867       -0.26136769073721
C            0.45957848238917       -0.82400765469497       -0.51022247739308
C            0.90666566091443       -2.08725421466378       -0.98004396494489
N            1.23493504284865       -3.08698406909075       -1.43750415309055
C            1.48726138174730        0.07105259214131       -0.20619922747950
C            2.83242863656381       -0.27419251017220        0.01235968943218
C            3.52739292781720       -1.47050192558661       -0.12872565820378
N            4.21662938679401       -2.39100405504786       -0.18242223955658
C            3.44674585608526        0.88854049743742        0.57861487048919
N            4.70400080809840        0.96189715091210        1.01995695991988
N            2.61187177718906        1.93167707129508        0.63037699598345
C            1.44404413600468        1.52640744727797        0.12112465923813
N            0.56826582338496        2.41876284196324       -0.22880473545025
C           -0.69535129497650        2.50909956426687       -0.50136774887127
N           -1.05980285887828        3.59528196396419       -1.22113029691991
C           -1.75984211810215        1.68860772822560       -0.00980512951424
C           -1.83624380740113        0.33504034407063        0.13599180038145
H           -3.81880617133996       -3.52746052737042        0.18939114830779
H           -4.85858678493794       -2.27459089868992        0.78798239574451
H           -1.33709892264691       -2.91624468076013       -0.49743716594040
H            5.31824295105141        0.17143770347347        0.92751125919706
H            5.03197261739791        1.82395572417460        1.41765255730472
H           -0.35033186613913        4.26110918942267       -1.47439996791216
H           -2.02760151860149        3.83922750757001       -1.33172417826707
H           -2.67510311910931        2.22941895020729        0.20817922958461
