31
 energy: -65.005287524907 gnorm: 0.000326655462 xtb: 6.6.1 (8d0f1dd)
N            2.99676600117645        4.09871100850954       -0.11900812606170
C            2.24041961427142        3.24005450823385       -0.07624888803140
C            1.24231421200971        2.21985801975931       -0.04465141717143
C           -0.04877121608462        2.72637997352325       -0.13359244527364
C           -1.32027234299540        2.17419090907082       -0.03488724406061
C           -2.35435076344037        3.15810411583802       -0.05925826642592
N           -3.14095368307824        3.98939533576755       -0.09568628825331
C           -1.84004324860467        0.87789773962194        0.11222894622233
N           -3.16299698961225        0.81747454469939        0.28540705530944
C           -3.52823555070880       -0.46921055409529        0.32378796386216
N           -4.78652204037189       -0.84616482021332        0.52972540761541
C           -2.40170834339382       -1.32504828292188        0.11903379180392
C           -2.53256444430301       -2.71320720321615        0.17408645884092
N           -2.78901430774146       -3.82861705264553        0.27911468005747
C           -1.27697553933749       -0.48590298206510        0.00677058928090
C            0.01716661460695       -0.98655540350329       -0.19285543532304
C            0.03930481851510       -2.33302341322630       -0.65403245224468
N            0.05565946318589       -3.36040194359025       -1.16227141803374
C            1.29418461781980       -0.44008939604649       -0.00333745686955
C            2.44898828372483       -1.23860387580576        0.09989099779605
C            2.62967853722332       -2.62121772387648        0.15358270706846
N            2.92679159486870       -3.72675648963400        0.25575417647818
C            3.54585881905226       -0.34315087787144        0.29611951630684
N            4.81839842017870       -0.67500039504619        0.49202965364907
N            3.13465649769870        0.92968295091415        0.26108051811748
C            1.80907618528481        0.94291528585522        0.09812871155964
H           -0.06847452938721        3.80735789972199       -0.25002146989787
H           -5.03229528073202       -1.82173421873910        0.54145704443813
H           -5.48844230639614       -0.13978701466515        0.67145041312580
H            5.49576237894461        0.05595662657253        0.62853403326714
H            5.09891957312795       -1.64117682992611        0.50143745804847
