30
 energy: -56.478600381933 gnorm: 0.000718629313 xtb: 6.6.1 (8d0f1dd)
N           -3.49558384871625       -3.50835263445647       -0.36269215907353
C           -2.80451091628692       -2.60487169264980       -0.22743141938270
C           -1.89107146331351       -1.52024179728490       -0.05853885824891
C           -0.60975924567140       -2.00413430852589        0.20458461791553
C            0.66688838464107       -1.44773047731004        0.25669697052878
C            1.62088378571320       -2.46364091420704        0.56644183493306
N            2.29334902303821       -3.32934578179847        0.89994346191480
C            1.20264595340221       -0.16808907684431        0.05797060427846
C            2.59652366767670        0.01266116510473       -0.11471269391783
C            3.61102141417012       -0.92750103178758       -0.31508403343039
N            4.54101952919526       -1.56414993357358       -0.54361872314684
C            2.88631954878590        1.40037259210831       -0.17489857412511
N            4.10266898750450        1.93551348559035       -0.36219303367347
C            1.67663239911628        2.08623238656890       -0.00979266534975
C            0.61649093698228        1.17635266604078        0.09775458299244
C           -0.70370008661273        1.65757275352796        0.23775734873323
C           -0.73151639924920        3.06217666927321        0.49760262481304
N           -0.74144807330026        4.18099810961958        0.74675461620533
C           -1.97707332588404        1.11199099231597        0.10395914667433
C           -3.11576369495581        1.95196401647133        0.08154752490201
C           -4.24345113196894        1.20199014424156       -0.20680052428394
C           -3.86836238532308       -0.13209747431534       -0.34089977831479
C           -2.48414911581798       -0.25673036067917       -0.13503942755208
H           -0.59404464556673       -3.08306049017325        0.34184417275997
H            4.22353651701552        2.93178690093805       -0.38497077773331
H            4.90192328120375        1.33565772534772       -0.47510903731244
H            1.58448800866898        3.15571706031951        0.00000227157353
H           -3.09742894584184        3.01487448945125        0.23088295329044
H           -5.24222935484463        1.58371595260506       -0.30784999090406
H           -4.53365429286257       -0.94908771121777       -0.54916877996739
