30
 energy: -54.889812907178 gnorm: 0.000711106130 xtb: 6.6.1 (8d0f1dd)
N           -3.40068919419374        3.09393347459170        0.20741043526990
C           -2.56226554173949        2.31168526744545        0.12441189670613
C           -1.51025828940395        1.36134081320465        0.04159574156298
C           -0.22419715115760        1.97006443276983       -0.04477281747803
N           -0.23170655960483        3.33600227715351       -0.13418011108446
C            1.05896530314610        1.41945067736033       -0.06022118601262
C            1.62219681412536        0.15754567968903       -0.02040831115145
C            3.02215034253665       -0.01232740576883       -0.00473758354391
C            4.00153489191292        0.97030841903638       -0.03202059156192
N            4.82580086793943        1.77532502007657       -0.05506413192752
C            3.26058256841375       -1.41708061753005        0.04817779745587
N            4.46057843243218       -2.01081217171158        0.09780444926567
N            2.12658606531077       -2.11333729419169        0.05429395872583
C            1.09974211082009       -1.24167164174569        0.01091476472179
N           -0.08930414638320       -1.75688439397014       -0.01934853688670
C           -1.31895198640513       -1.31519299775248       -0.02304363969413
C           -2.34491613243035       -2.25172538927401       -0.05869525468710
C           -3.58951896071205       -1.59811139088223        0.00875072511751
N           -4.79425206814236       -2.19416121316257       -0.00420750277849
C           -3.35752209356900       -0.21655001895046        0.07973397556907
C           -1.98668364062795        0.04572304076335        0.04527469596527
H            0.63610118948214        3.83931006501530       -0.10068540291303
H           -1.08699287783402        3.85514969320873       -0.04455208025342
H            1.82515775905707        2.19270456237309       -0.10032067581195
H            5.30355065281129       -1.46767922274587        0.04640837312640
H            4.50061585169568       -3.01412545561133        0.09947364461291
H           -2.18443778585675       -3.31057043318488       -0.11187331527165
H           -5.63171923317915       -1.64889795778063        0.09431922980205
H           -4.86334073964547       -3.19544214947840       -0.02560556196222
H           -4.13479477549808        0.52296036585316        0.13753693511743
