29
 energy: -51.167149275522 gnorm: 0.000875723058 xtb: 6.6.1 (8d0f1dd)
N           -4.88432647755263        1.78980836846838        0.01127685354955
C           -3.96152753702934        1.10128375705977       -0.00192151712382
C           -2.87872572377041        0.22646623922153       -0.01034213925531
C           -2.99826185708612       -1.18170021932089       -0.00973907345355
N           -4.15454980862709       -1.87374145444749       -0.04060046708399
C           -1.70330597198896       -1.71471664408695       -0.00901190807022
C           -0.75641924839348       -0.68488055671910       -0.00848402221302
C            0.62130421020454       -0.97480718752313       -0.00623260666960
C            0.88622933464344       -2.37412284015133       -0.00324240260358
N            1.10848387663329       -3.50017898011384        0.00409504570531
C            1.78815578908355       -0.20509600577408       -0.00478670330771
C            3.05128321023945       -0.80485457706336       -0.00221242209549
C            4.05369987041280        0.17727832681107        0.00069266963193
N            5.38316888696004       -0.05328946440268       -0.02916186194703
C            3.43049013442060        1.43451421898874       -0.00164068012839
C            2.04333509663094        1.27791598825746       -0.00389265210978
N            1.31363132330863        2.36736043788775       -0.00154623828558
C            0.04104750674929        2.64601059209812       -0.00254793473491
C           -1.15550615200063        1.92290775854771       -0.00789284889680
C           -1.50337597356593        0.58453764166534       -0.00955550597133
H           -5.02875715745868       -1.38651923815043        0.05262053682774
H           -4.14233594171727       -2.87243740239916        0.06362245585874
H           -1.48061426433981       -2.76529244550051       -0.00903984423622
H            3.23912641673081       -1.86301015663598       -0.00217008735153
H            5.72780626471142       -0.98925169078192        0.09091608216466
H            6.02297309694634        0.71095927688066        0.09425640470100
H            3.92315330873352        2.38749838417446       -0.00105095911283
H           -0.11426913596915        3.72533879606091        0.00069021250240
H           -2.02697011520907        2.57228757084913       -0.00997698399059
