29
 energy: -61.547005873660 gnorm: 0.000992420369 xtb: 6.6.1 (8d0f1dd)
N            2.12604187118773        4.37597660670757       -1.23920959591255
C            2.22878346965698        3.29668349309134       -0.86472133575416
C            2.36897307421497        1.97338066679660       -0.42735420382221
C            3.56534859002295        1.31495069822463       -0.15992017661576
C            3.29428753436366        0.00038677415031        0.25613175000689
C            4.30153532616662       -0.87250387116666        0.69145002488899
N            5.17533178512848       -1.50906375824151        1.07549919712675
C            1.89622029165224       -0.22710024575246        0.19655777029890
C            1.31175209121121       -1.48346386089596        0.09835568952051
C            2.21369628501846       -2.59093244386850        0.14845131887626
N            2.85998517346990       -3.53549439972215        0.16827715537563
C            0.00610559390736       -1.95124692140248       -0.16042175922143
C           -1.26435456111098       -1.40859028819554       -0.28791071596275
C           -2.23936874456200       -2.42727980020721       -0.51113331237011
N           -2.97453094375799       -3.28124479214339       -0.71354441059699
C           -1.80592992783657       -0.11708390976882       -0.12884186057868
C           -3.16304250877741        0.18331854843003       -0.04337253838308
C           -4.31207951670340       -0.54615174152273       -0.34766952890161
N           -5.33278589757929       -1.02837576935007       -0.56171208131729
C           -3.24075793852332        1.54003812941148        0.46333666184048
N           -4.36234812852449        2.18848063500710        0.75284109517467
N           -2.03675698258495        2.07513256023512        0.61815732543075
C           -1.12987184787428        1.16935649541986        0.21683247474576
N            0.08794671123280        1.54790396928238        0.03005487430987
C            1.28470192446955        1.10232454038287       -0.10653896281612
H            4.54800387240309        1.74268309383847       -0.24360674411606
H           -0.00728715221324       -3.03387599921716       -0.27163343438005
H           -5.25986500314347        1.76691471467811        0.58018290341236
H           -4.30082045861586        3.13057136720262        1.10125373584242
