27
 energy: -51.727535589075 gnorm: 0.000770572464 xtb: 6.6.1 (8d0f1dd)
N           -2.99637395386122       -3.31957051444123       -0.00051259195886
C           -2.23726161992046       -2.45985290492229       -0.00217548512527
C           -1.26757514097853       -1.41615023931780       -0.00291410164944
C            0.02610727992448       -1.94016934714866        0.00091816287137
C            1.30597915361824       -1.39980113148024        0.00178488331870
C            2.33636962707215       -2.38196520389817        0.00751613738473
N            3.13219669598141       -3.20675600335991        0.00900606481781
C            1.81102506978044       -0.09049433996232       -0.00114283713520
N            3.13206213108799        0.07495493672030        0.00070375237618
C            3.32410012287867        1.41252328511317       -0.00313159913058
N            4.54501957896260        1.94357783460612       -0.00281377027846
N            2.20911744332660        2.15411255158092       -0.00736649569739
C            1.19660013822333        1.27864947180245       -0.00636598891640
N           -0.01681009817371        1.75651591288073       -0.00963779775103
C           -1.22077603874934        1.26585510365077       -0.01007769704724
C           -2.29650665541881        2.15672173015874       -0.01399949397424
C           -3.50144787401219        1.44402307846262       -0.01397797413457
N           -4.73735232219811        1.96373407721787       -0.01726275162603
C           -3.19834334950955        0.06139235618938       -0.00997243518988
C           -1.82639667520050       -0.12677459443696       -0.00734737698319
H            0.03537262149344       -3.02835541388252        0.00394950274464
H            4.64601730591164        2.94213564085021       -0.00517308302356
H            5.34267614593537        1.33384967347140        0.00102468898723
H           -2.18437806863294        3.22296194739932       -0.01660620545918
H           -4.86992269165025        2.95928760589873       -0.01967370027098
H           -5.54207709152840        1.36235229657566       -0.01660343100155
H           -3.93717420186224       -0.71950143142830       -0.00906080074770
