27
 energy: -52.522999109876 gnorm: 0.000541041836 xtb: 6.6.1 (8d0f1dd)
N           -4.02003543499673       -2.63297626055108       -0.00771428134764
C           -3.09903845744638       -1.95174263209404       -0.00518523530949
C           -1.90332489139111       -1.16812100694546       -0.00235929381868
C           -0.79009677833658       -2.01919497599653        0.00320905153735
C            0.58348099137642       -1.84300197574360        0.00442305932458
C            1.31393933428736       -3.06745766693908        0.00940093155251
N            1.85766366510261       -4.07538261273066        0.01412263617363
C            1.43162951891668       -0.72291998679056        0.00073709688021
N            2.75050043738116       -0.94423273365043       -0.00082118049956
C            3.31913576071389        0.27326574752382       -0.00303789177348
N            4.63623858971913        0.45674275139875       -0.00612242555886
N            2.44346444602028        1.29767019102543       -0.00205248776009
C            1.23193656543445        0.73295874963449       -0.00013387550170
C            0.12066014214324        1.59840928564258        0.00172705444528
C            0.55648251121486        2.95868693999299        0.00527287246568
N            0.90006215692163        4.05122298957620        0.00923384851160
C           -1.25342753060651        1.41612524237129       -0.00072176781002
C           -2.12001485844105        2.52802606823252       -0.00192288843170
C           -3.43620579506815        2.09371581045038       -0.00773901324111
C           -3.45009315761087        0.70146966889203       -0.00953724352766
C           -2.13499496766494        0.21011199984449       -0.00477968815741
H           -1.07279122451994       -3.06971566384830        0.00609467607219
H            5.24316962878730       -0.34314451368908       -0.00584453174607
H            5.00057808535599        1.39240151413069       -0.00663616362429
H           -1.79629213081792        3.55154879286405        0.00050740924206
H           -4.30508567415316        2.72539990364542       -0.01042654886465
H           -4.33339854482166        0.09073396865369       -0.01354914483271
