26
 energy: -52.795627635167 gnorm: 0.000569501295 xtb: 6.6.1 (8d0f1dd)
N            4.06277422240961        2.61451082935680       -0.00010071933065
C            3.11681979224026        1.96838183346521        0.00057494203418
C            1.91027332253704        1.20489827309413       -0.00011092337018
C            0.79524361645454        2.03999762968459       -0.00054569791156
C           -0.58295981621590        1.84948516862614       -0.00066364421545
C           -1.31688440370044        3.07263956362651       -0.00092533672116
N           -1.86141937985567        4.07989500709303       -0.00201139539885
C           -1.42885837098209        0.73198876298975       -0.00025614063354
N           -2.74701124361454        0.95643626574059       -0.00001038124586
C           -3.32062352207174       -0.25659091198187        0.00022714869886
N           -4.63422216729176       -0.44042442654984        0.00059009681605
N           -2.44617109170929       -1.28958297876197        0.00007021693692
C           -1.23861061855892       -0.73610775076475       -0.00013573254665
C           -0.12099641639992       -1.59230249626383       -0.00034052716591
C           -0.49184852511498       -2.97116731283644       -0.00179859559376
N           -0.81655348535297       -4.06863945805031       -0.00028409706431
C            1.24705884989692       -1.38162714492613       -0.00024995964869
N            2.01153348719169       -2.49266529054562       -0.00034511424574
C            3.28097414651557       -2.11537768954526        0.00007050338458
C            3.42079296496794       -0.72404710528198        0.00036079511757
C            2.13224135782165       -0.18193968187479        0.00005687307038
H            1.06439144743660        3.09419257608100       -0.00077842075053
H           -5.24370285906793        0.35840469718587        0.00063091902840
H           -4.99649985353820       -1.37772730461780        0.00076619165019
H            4.06540767268476       -2.85003635983105        0.00013962718502
H            4.34399384861779       -0.17854496521209        0.00067118432057
