29
 energy: -51.176860533362 gnorm: 0.000794018105 xtb: 6.6.1 (8d0f1dd)
N            4.81677357797881       -1.62627375701701       -0.00212926240495
C            3.95152174397621       -0.86824518340472       -0.00649824438224
C            2.88240649910561        0.02949623518571       -0.00685737473497
C            2.98122546293096        1.41088446645040        0.00808769380923
C            1.68310928029675        1.94341482114156        0.00847344405942
C            1.38541503238381        3.30911884913034        0.02562388340181
N            1.15804446731650        4.43582205949357        0.04048447067472
C            0.73002137990830        0.89158832414832       -0.00552754876665
C           -0.62466502854201        1.18505731101898       -0.01441205573985
C           -1.78560766637912        0.43530961816342       -0.02124457113120
N           -2.93484030998551        1.13412982480401       -0.02221922994107
C           -3.94926113306021        0.25679143519670       -0.02113324198930
N           -5.22741551648358        0.67673541356406       -0.05858087495025
C           -3.48245189147259       -1.07095448683211       -0.01758854261388
C           -2.08869665132249       -1.01448772010113       -0.01937551443190
C           -1.32481128142710       -2.17799266533493       -0.01392333312436
C            0.02816795133039       -2.49916308646986       -0.01870117134167
N            0.30061413657830       -3.84669409393161       -0.06606734175469
C            1.18896616056723       -1.69537694561542       -0.02436558573539
C            1.49315412437205       -0.35723031417643       -0.01446459617034
H            3.89230483876894        1.98128043352326        0.01828155772142
H           -0.84403952236870        2.24922616239829       -0.01435995878604
H           -5.97748526826314        0.02953976316802        0.10226011678817
H           -5.39764693087411        1.66163739830678        0.04429982768771
H           -4.09105598978995       -1.95484205026876       -0.01720089140053
H           -1.95700745536813       -3.06351791092831       -0.01118280746276
H            1.23850582687844       -4.16783654394626        0.09683835964260
H           -0.43921109953942       -4.50612843465010        0.09701238550505
H            2.08994665578382       -2.30697079361699       -0.03577148522801
