32
 energy: -64.724659723842 gnorm: 0.000534761072 xtb: 6.6.1 (8d0f1dd)
N            2.51443574046873        4.28907480713503       -0.03237995982308
C            2.32753513030481        3.15614264363195       -0.01549502643556
C            2.23207548641721        1.76125740325259        0.06977127136296
C            3.28142404064697        0.99339112914317        0.59855921705919
C            2.89499662623791       -0.34009344550247        0.63313710390360
C            3.69087151184701       -1.36230581209407        1.16458290425905
N            4.37376611857229       -2.13550186195822        1.66890328902490
C            1.57968376343521       -0.45754442279634        0.08060010538748
C            1.10164407409435       -1.66903301096593       -0.38545742983418
C            1.94829765017131       -2.80147252417350       -0.34893757067973
N            2.55952204337083       -3.76982888003172       -0.43427696916446
C           -0.17930081237170       -1.98085166494160       -0.98639221772278
N           -0.21105667896925       -2.92616209426550       -1.94580863133750
N           -1.32605798312189       -1.55571269547884       -0.55743925923196
C           -1.85320764815477       -0.48718890537942       -0.04280966324757
C           -3.15688504544149       -0.46800641476455        0.49863125167358
C           -3.93425029630528       -1.57726979869792        0.82924227917564
N           -4.60498860946100       -2.46618478476868        1.11400572038249
C           -3.58422729415941        0.88185473211419        0.57550461849119
N           -4.77486701451929        1.29570240920379        1.02213805077502
C           -2.54208728665896        1.70865089281717        0.09827270145334
C           -1.43283188375612        0.92629687040283       -0.20086620761780
C           -0.15020771301165        1.45512012287904       -0.44660902754992
C           -0.21001227119358        2.81907773837432       -0.84511752430656
N           -0.36705065214932        3.86887226700864       -1.27827709983682
C            1.11490529344794        0.92221370330065       -0.18429030500982
H            4.22345625576311        1.38395804338399        0.93676774814963
H            0.61105196032924       -3.46706193404551       -2.15857023573070
H           -1.10941363219530       -3.27458431424365       -2.23818100996684
H           -5.01529756089732        2.27130740920695        1.00430024534319
H           -5.44516532679988        0.62913465014953        1.36621688925496
H           -2.58696531443968        2.78026531360484        0.04589075029852
