25
 energy: -49.070709862126 gnorm: 0.000782364053 xtb: 6.6.1 (8d0f1dd)
N            0.19409055654034       -4.56154859109872        0.18275570863092
C           -0.23643648103843       -3.49970483432175        0.12372038157312
C           -0.77563643727749       -2.20685208233373        0.05292357340901
C           -2.12914347180810       -1.91103699354559       -0.06265107048625
C           -2.27410921729397       -0.51861973543059       -0.09033163857640
C           -3.54108535290095        0.05998250724675       -0.27353952610402
N           -4.61726045271382        0.40521126087159       -0.47045066304825
C           -0.99710030425016        0.10262519582402       -0.00026896821874
C           -0.87051235934263        1.49381116256309        0.08265610851480
C           -2.09213590724248        2.21357149948699        0.27162616355474
N           -2.98623072045208        2.89539368074498        0.48932392281859
C            0.18481106357752        2.42061310196615        0.03422149609141
C            1.55672074574212        2.34823753053803       -0.08683810889722
C            2.47511263397870        1.30559592496859       -0.08851960995484
N            3.78377239872881        1.61528498563704       -0.17404395970690
C            4.42572564398135        0.45512206032055       -0.10011214361368
N            3.65303298250165       -0.62254521841752        0.02854687947399
C            2.39215116306199       -0.15769644716819        0.03572322710418
C            1.35782332908945       -1.08312948374439        0.11367678311794
C           -0.01695380007738       -0.99818896333257        0.06286132447289
H           -2.93263299338916       -2.62164724807531       -0.12472783545344
H           -0.17972969167570        3.44282181745105        0.08423454104435
H            2.05599500019465        3.30816244231184       -0.16693921481669
H            5.49669807431953        0.38820614481158       -0.14041560197438
H            1.74128335764624       -2.09813594647392        0.18524037944485
