34
 energy: -68.962968300447 gnorm: 0.000632975838 xtb: 6.6.1 (8d0f1dd)
N           -3.45313867422714       -3.35907756111986       -0.09793155812596
C           -2.67948498893749       -2.51436819196491       -0.09614123352876
C           -1.63397691514554       -1.54589165068967       -0.15962148767467
C           -0.42856124302589       -2.17433163309196       -0.50020234700073
C            0.90961168490598       -1.81964922535515       -0.43981965664935
C            1.75061342353845       -2.90026384864123       -0.83650134767627
N            2.36393677740601       -3.77472306830370       -1.25031965211365
C            1.59859601853918       -0.65672287046622       -0.03614988215889
C            2.95497060430913       -0.70277024061126        0.33549923706957
C            3.76649810245775       -1.81000543409815        0.60558890992790
N            4.51527693964251       -2.62591524063884        0.91141589268889
C            3.43322714110326        0.62059060874811        0.53755976440279
N            4.65702172155628        0.96054928976411        0.95026080440278
C            2.37238693487237        1.50392223572003        0.22928540619094
C            2.51490409999840        2.88323353590351        0.41091061059405
N            2.74966117327258        3.98258430965893        0.65006674084860
C            1.21453399829603        0.75263329372760       -0.09121620691452
C            0.01833760764750        1.39303100315994       -0.44839504988830
C            0.20638143721292        2.71937644877023       -0.93141643624193
N            0.32847958931275        3.73578953595735       -1.44795784596980
C           -1.33730918016319        1.04917111214565       -0.31498991129289
C           -2.31454600824342        2.04823799713526       -0.34234320377537
C           -3.54621208750554        1.52215566584999        0.07267318854676
N           -4.69438565853223        2.18805148311042        0.23464458931610
C           -3.36421435192563        0.12938119801463        0.30323536527891
C           -4.41870301467050       -0.65267494677204        0.78260141835142
N           -5.35948109250093       -1.14387838269728        1.22468347842449
C           -2.02635708659517       -0.21738757909288        0.01346632897240
H           -0.57191309323926       -3.21357650189530       -0.78698118164362
H            5.33515235100515        0.24732352148100        1.16076343222536
H            4.89911476074035        1.93026384591955        1.06813329292325
H           -2.14044671326872        3.08207206294862       -0.57316940315613
H           -4.74810076768207        3.17104034576070        0.03383858240406
H           -5.51177828255205        1.70581108945365        0.56974596324443
