26
 energy: -48.005161684740 gnorm: 0.000807252999 xtb: 6.6.1 (8d0f1dd)
N           -4.79706136061435       -1.96158498566972        0.00198293904856
C           -3.94387853243036       -1.19219181441489        0.00205051566827
C           -2.89557579936795       -0.26603895548862        0.00100219563949
C           -3.03575726630953        1.11197330781057        0.00034628146754
C           -1.75302357510287        1.68591516550804       -0.00035922245622
C           -1.49199863827646        3.06068205442735       -0.00094051067181
N           -1.28113576990319        4.18980158817612       -0.00207271479144
C           -0.77041421068502        0.66640744394196       -0.00024656823582
C            0.57801369886038        0.99060435252040       -0.00070085379551
C            1.74312010458341        0.24455030347084       -0.00055885734656
N            2.89388497075078        0.93655003323854       -0.00099719413014
C            3.90975659169130        0.05756527459789       -0.00057909865454
N            5.18007330915786        0.47981612281364       -0.00007097683848
C            3.44488197995662       -1.27574664441298        0.00009919797265
C            2.05567738265836       -1.21747274568143        0.00005676917302
N            1.35864667522948       -2.34288608110248        0.00027861373765
C            0.09959761232695       -2.63940632117794        0.00050498046466
C           -1.12514194070478       -1.93313861274177        0.00088474729672
C           -1.49870710528061       -0.61034867219959        0.00058385069131
H           -3.96364139710463        1.65466431742194        0.00046614119594
H            0.78088884558328        2.05800621075639       -0.00112735891367
H            5.94415641666729       -0.17026344460014       -0.00288907001596
H            5.35739316772870        1.46879403451855       -0.00273684301388
H            4.03795669568051       -2.16777502021160        0.00050483927928
H           -0.04361085171806       -3.72023800555274        0.00049364037328
H           -1.97773060657709       -2.60752671834834        0.00141595965567
