34
 energy: -68.962617865652 gnorm: 0.000722529886 xtb: 6.6.1 (8d0f1dd)
N           -1.90312921959301        4.66164433915860        1.12120640229743
C           -2.07787658454187        3.58043251421396        0.77674446288140
C           -2.29607289257738        2.25826069549394        0.37333265258487
C           -3.51231332623778        1.74814488708121       -0.09643380321290
C           -3.33751706182990        0.40818158141191       -0.42668321105051
C           -4.39800430514438       -0.36696192354269       -0.91507480894910
N           -5.33263054314968       -0.89776511589273       -1.31853299239941
C           -1.99637620489493        0.01292465516067       -0.09686376821126
C           -1.62095013524553       -1.31590624930305       -0.02759403679902
C           -2.52977416177693       -2.27495229122639       -0.55207958218112
N           -3.15284961132427       -3.12613441448449       -1.00351727045185
C           -0.50633513082471       -1.98288710180883        0.60207694832625
N           -0.82865989182586       -3.15180110985580        1.20773231345832
C            0.85407409283501       -1.64287146990784        0.54685941345652
C            1.71516843535039       -2.65915286707805        1.04341467792026
N            2.36869429245656       -3.46623840043817        1.53163433620170
C            1.55611960625050       -0.51225600713502        0.07440185777536
C            2.91350086102379       -0.58798393508655       -0.29061898439380
C            3.68114130719651       -1.72226910528315       -0.57726964176955
N            4.37509880694107       -2.58262480016814       -0.88998776726718
C            3.43836206198226        0.72447268962660       -0.44185063907548
N            4.68297335871210        1.03587244595079       -0.81375300442886
C            2.39921895909564        1.62930850180554       -0.12373869473763
C            2.54828249079412        3.01732670838994       -0.13388145369539
N            2.72016454852603        4.15339882231831       -0.15537148421409
C            1.20795869601575        0.90559308110594        0.13685137135559
C            0.02981494149860        1.58422689697063        0.41206178985238
C           -1.30727003258691        1.23942154062427        0.32735592935484
H           -4.42998367193755        2.29869524266083       -0.19204092605724
H           -1.76617965274235       -3.51396015735501        1.14875445609669
H           -0.10185526376588       -3.77652938705107        1.51931815927555
H            5.34438845084779        0.30668699033216       -1.02301852395244
H            4.96675414585474        1.99840629816432       -0.88594489271101
H            0.18340881174400        2.64713577767527        0.58727276194174
