28
 energy: -57.029066023986 gnorm: 0.000996135587 xtb: 6.6.1 (8d0f1dd)
N            1.65468315211423        4.53017847545941        0.60514466413010
C            1.79974782127332        3.40982364444139        0.40240322931814
C            1.98567537668595        2.04458041666463        0.15591795049395
C            3.14895387228948        1.44092967686993       -0.30033021330754
C            2.92529226847688        0.05984022867157       -0.44574353109802
C            3.88444354287611       -0.81130292672923       -0.98047598217985
N            4.69453818127015       -1.45649527501427       -1.47533170665191
C            1.60909685879978       -0.25577944068945       -0.03234306230526
C            1.20571216459127       -1.54272559573677        0.31358553327165
C            2.20404513010766       -2.55216843300454        0.35816893847918
N            2.95471991073743       -3.41023372109511        0.47299279608428
C           -0.04939494995658       -2.03966542643356        0.75123619549984
N           -1.25137765770247       -1.63420310061251        0.50974714268125
C           -1.87006589107422       -0.53422383503036        0.22866072416694
C           -3.23404323653968       -0.49540342165767       -0.14598002131837
C           -4.04079526693720       -1.58947332206974       -0.46364624305599
N           -4.74552463145887       -2.45579909868795       -0.73434370473914
C           -3.68420119830491        0.84925547718830       -0.10875928916085
N           -4.93223579900830        1.25182689355499       -0.36795067994971
C           -2.59448320034316        1.67710967145023        0.23940287959693
C           -1.44945779546818        0.90282772749179        0.38268123975275
N           -0.26548774268775        1.46240798043283        0.44695808157029
C            0.94984177863890        1.06036133682346        0.26270567895132
H            4.07411411705677        1.94123145481344       -0.52251320598175
H           -0.01652491173955       -3.00840753069597        1.24523288472310
H           -5.18168478992947        2.22242904666695       -0.29206871757968
H           -5.63760172389112        0.58008764812002       -0.62093632364334
H           -2.62378931292667        2.74502864670429        0.34153976783270
