25
 energy: -49.066995171984 gnorm: 0.000654979790 xtb: 6.6.1 (8d0f1dd)
N           -4.18134748588227       -2.36317652375277        0.95335082855962
C           -3.41621003528930       -1.55527153063010        0.67228001223390
C           -2.48034888481799       -0.56736892690108        0.34629384892751
C           -2.67840848482657        0.81079973811778        0.40291794210423
C           -1.51263382374980        1.46640821915153       -0.02040736670510
C           -1.43000100737840        2.86365112715142       -0.07798980231974
N           -1.45800033545231        4.01115796015182       -0.10007260509652
C           -0.50471326226495        0.49838962065288       -0.28886299743893
C            0.85744057748776        0.78729680753316       -0.36707511664268
C            1.20533216295629        2.15924737347424       -0.53466975720328
N            1.55695675378139        3.22741717856787       -0.75145371814728
C            1.97485905187321       -0.03009237447484       -0.11278126808571
C            3.20603851796066        0.47724392820235        0.29329503110032
C            3.98545681816650       -0.56168774628776        0.84400626267140
C            3.29401676439255       -1.74800619352482        0.77215460031486
C            2.06492735530030       -1.51392052754080        0.09607512550164
N            1.40291991734697       -2.47394808618989       -0.45737797170410
C            0.24249201492230       -2.54087452302276       -1.06114282250379
N           -0.85844174385818       -1.96223934064291       -0.69850280803317
C           -1.17354038530442       -0.81913611261304       -0.16331643659450
H           -3.58243631084325        1.30201552961915        0.71355291182453
H            3.50063295174409        1.50951222075429        0.24936007432715
H            4.96795624966321       -0.42944582781125        1.25839485397501
H            3.63027002761365       -2.71952066710567        1.07756950044941
H            0.13998638815845       -3.33520968157909       -1.79383334391568
