29
 energy: -56.750448018183 gnorm: 0.000537620593 xtb: 6.6.1 (8d0f1dd)
N           -2.21392630697089       -4.52178516952678        0.18516229066554
C           -2.17797304746434       -3.37382915415882        0.15804830361636
C           -2.10432662455953       -1.97735851165434        0.11506146549241
C           -3.18172551422074       -1.10686873661953        0.20851773304609
C           -2.69962774460714        0.20278582407713        0.09369716464833
C           -3.55544548436697        1.30468370400763        0.23508182403019
N           -4.33630025981800        2.12721586765220        0.41173319019205
C           -1.28204101061672        0.18036272478320       -0.04167148334624
C           -0.54341001290834        1.35373627754742       -0.19717354920203
C           -1.29910824502919        2.50724229170445       -0.56395105954339
N           -1.82533169036014        3.44124650498724       -0.96813234498959
C            0.81712482828309        1.65128629111234       -0.03812254971369
C            1.28409125616052        2.97328635811135        0.05800682375978
C            2.64908019629121        2.90327937908899        0.33625880851034
N            3.08468620223991        1.65088748441408        0.37152186382501
C            2.03468445118609        0.83513242533426        0.13972266143116
C            2.37932533939812       -0.50586223977917       -0.00745675749093
C            3.79001294117319       -0.67889551341734        0.12294480950442
N            4.91003562079743       -0.90658768934329        0.21762375118644
C            1.66288801367099       -1.70084704306630       -0.26527224919022
N            2.41498159423223       -2.79694988154721       -0.54701239485003
C            0.28101397317269       -1.94520659594507       -0.19589342471670
C           -0.88657929071589       -1.23193867006922       -0.02195584121494
H           -4.21097256762052       -1.38131209157349        0.34796790456974
H            0.69498173892018        3.86559359467764       -0.01783813101143
H            3.32587643105321        3.71964189302872        0.50748866622656
H            3.41971267461803       -2.74419557582838       -0.53184308297910
H            1.98353043571284       -3.70017238947617       -0.63586108929551
H            0.07623962784911       -3.01276727832141       -0.26433244596035
