28
 energy: -47.453896444828 gnorm: 0.000654439279 xtb: 6.6.1 (8d0f1dd)
N            4.21713020696469        2.22423569787257       -0.03798352030271
C            3.46877591237054        1.35108316922262       -0.03334293298411
C            2.54191646168741        0.30586710412502       -0.02318483261281
C            2.85729926820799       -1.05292430860831       -0.01082637273688
C            1.66291347536649       -1.76909538278644        0.00426020112150
C            1.55689962190650       -3.16255165722446        0.02272161358779
N            1.46606694198590       -4.30851804272117        0.03758867520312
C            0.55544778317214       -0.86257999744133       -0.00008357501331
C           -0.73402107500384       -1.36607585094839        0.01369130346722
C           -2.00287086846186       -0.81366800849329        0.00691396026416
C           -3.13018127300404       -1.64999834396739        0.01630748411233
C           -4.29171374836464       -0.87860565554702       -0.00645158290463
C           -3.93065484735327        0.45433683953497       -0.02823439223292
C           -2.51723073680388        0.57102440274789       -0.01911734290587
C           -1.94791578582405        1.82296761453443       -0.02458039292154
C           -0.64895422203956        2.36588622962246       -0.01623942821193
N           -0.61946296507153        3.74199505588458       -0.06405937179898
C            0.61074558648521        1.76518519762265       -0.01988249459790
C            1.12147762267083        0.47603042336210       -0.01784075968105
H            3.84700827773668       -1.47161727370526       -0.01189688296869
H           -0.75481622813796       -2.45384849483677        0.02995303161996
H           -3.09047815828778       -2.72376405592304        0.03670872259523
H           -5.29638918543135       -1.26022102817423       -0.00703474192190
H           -4.60689910809314        1.28965904824230       -0.04921549883591
H           -2.70461871441220        2.60485886295175       -0.04086667400879
H           -1.45796656239109        4.26128100656207        0.12796686496550
H            0.25109779133421        4.21776026395218        0.09610468859680
H            1.40995973319158        2.50437905993956       -0.02877450369374
