25
 energy: -48.284375641668 gnorm: 0.000601984171 xtb: 6.6.1 (8d0f1dd)
N            4.02766961374580       -2.18338698487775        1.23297699796280
C            3.34690922838293       -1.32705774654997        0.88212623616246
C            2.48831620747353       -0.31210313649272        0.45024825066446
C            2.83325568592465        0.98196268221035        0.13285834591376
C            1.66884519822688        1.66866234314613       -0.28252002712602
C            1.64164675174072        3.01747972044626       -0.65700800458353
N            1.63485191612260        4.12186437210835       -0.97100255066912
C            0.55241894572786        0.80981923491006       -0.22533209756001
C           -0.73822666028375        1.31489266105107       -0.37556300628225
C           -1.97071398029106        0.77106325975637       -0.09045026760499
N           -3.04532983489422        1.56520808417164        0.09252032269472
C           -3.95358518536236        0.78675977678020        0.66560183476690
N           -3.63005413006794       -0.49983664119488        0.82999285851598
C           -2.40222147977812       -0.60577061976165        0.31609314681972
N           -1.87611252544994       -1.76239058723392        0.03729113979850
C           -0.72369582372410       -2.25299181384082       -0.27633393906335
N           -0.73133665788539       -3.42808254881331       -0.93896721146627
C            0.57170158806603       -1.77034066269838        0.14457249730147
C            1.07521184329190       -0.51087100873035        0.18046175334378
H            3.81661240350731        1.41168357079566        0.19323413026863
H           -0.78109185576282        2.37895697945246       -0.59004796855802
H           -4.90912481991091        1.16756062197274        0.97669044247225
H            0.11359747106753       -3.95056570727211       -1.08698446120138
H           -1.61856344069418       -3.84789296970611       -1.16038473498208
H            1.26561604672326       -2.56004835322538        0.41869418241398
