30
 energy: -56.490732498324 gnorm: 0.000885568195 xtb: 6.6.1 (8d0f1dd)
N           -0.17273254903150       -4.35772554597480        0.09089055458077
C            0.41396819557922       -3.37135540733749        0.05312995944973
C            1.14125019084110       -2.17536668752891        0.00989395747823
C            2.52724988272218       -2.09037452092915       -0.10134724349388
C            2.88362123434551       -0.73951368723443       -0.10297866850312
C            4.21999056821443       -0.34932738381411       -0.27371477566538
N            5.33610346678036       -0.15724222260639       -0.46196736352687
C            1.71055747001768        0.06521286921867        0.00008706237691
C            1.78645403326025        1.45753377469115        0.10134915226742
C            3.09345409398924        2.00128595014105        0.28676548129890
N            4.07176586914381        2.55908657991524        0.49761540334379
C            0.86181868071742        2.51299851662623        0.07036094631565
C           -0.50815606857105        2.63306908356782       -0.04098503000873
C           -1.59316740104731        1.75924970108981       -0.05083809280563
C           -2.89613149359480        2.26963260385033       -0.12992372925377
C           -3.82805448780361        1.22944770954304       -0.06123683910713
N           -5.16817849931970        1.32754358390958       -0.08222289008317
C           -3.09579105559648        0.01792831946732        0.06270974899133
C           -3.70049708202943       -1.23681759609331        0.15492372447610
N           -4.25938268427738       -2.23877706402793        0.22777433668760
C           -1.70896602984609        0.30052228839748        0.05916629848793
C           -0.79884882192367       -0.74256306261878        0.11214767202445
C            0.58036641932857       -0.86485712350260        0.04715716827183
H            3.20964007980495       -2.91663314943404       -0.17761136157724
H            1.36032811070911        3.47658903033806        0.12735637256092
H           -0.83021977621993        3.66809434938230       -0.10583803735303
H           -3.14327873051851        3.31136753409689       -0.22102556303664
H           -5.61177133467071        2.21506300545520       -0.23619635344745
H           -5.73183250130080        0.49505058670095       -0.07143795697950
H           -1.29122554020275       -1.71197980988929        0.17795768962996
