30
 energy: -60.495308853280 gnorm: 0.000979378285 xtb: 6.6.1 (8d0f1dd)
N            3.83949099588535        3.16035592280651       -1.68580145802111
C            3.39628121546592        2.19196532166811       -1.25638074023643
C            2.85154818984799        1.01232442370580       -0.74074384570055
C            3.47323581633488       -0.22632303589520       -0.65173290828459
C            2.61226759026921       -1.14781372459056       -0.02507657008772
C            2.97731601198481       -2.48416857973261        0.17214281353637
N            3.36871759653558       -3.55635876998146        0.29958309290086
C            1.37468837572760       -0.51395516252438        0.24890747896510
C            0.18875591181300       -1.18753979702498        0.53356702187116
C            0.30664347926555       -2.55310126551152        0.91385930526744
N            0.32068506716312       -3.63151517497806        1.30175243028043
C           -1.15429686590364       -0.80090860686231        0.31804820269178
C           -2.16789723277195       -1.72371089405299        0.10753003465907
C           -3.32599937518738       -1.06597120841045       -0.37629214203749
N           -4.47242523143140       -1.65891464195923       -0.72626023404728
C           -3.06162625242802        0.31973805111496       -0.43160850326830
C           -3.97939945052072        1.29692802410397       -0.81632413458920
N           -4.76777606973914        2.06419094989266       -1.14937239745748
C           -1.75654283380971        0.54760834199174        0.06927062570154
N           -1.37339087157548        1.72427316621287        0.45013895664582
C           -0.21628277624915        2.19789176644203        0.87578002086195
N           -0.26551136104720        3.16629382654739        1.81020903480366
N            0.95457546892635        1.97465937600677        0.31167021057099
C            1.57702606994728        0.92083944270494       -0.10064001970680
H            4.46156671298333       -0.45856794237477       -1.00564709426904
H           -2.07882145757416       -2.78866487955259        0.21775680318652
H           -5.23431480490541       -1.10942212842858       -1.08634829046552
H           -4.58921863814942       -2.65091143576399       -0.61605791622931
H            0.55668203932485        3.72493759384437        1.96510570932253
H           -1.16502756580442        3.53945093191839        2.06231907285219
