29
 energy: -62.324137758808 gnorm: 0.000905661797 xtb: 6.6.1 (8d0f1dd)
N            1.16697719858513        4.97976349734249        0.16203068907324
C            0.89977911206058        3.86948586031588        0.09467895094693
C            0.49219151307529        2.50459010530401       -0.01906091267920
C           -0.85077205951427        2.36776865246526       -0.37885307952523
C           -1.74593729069131        1.30614311213294       -0.34262491582097
C           -3.05051676931992        1.74168218240031       -0.73191516078308
N           -4.03523254791704        2.15108246632453       -1.14814136471396
C           -1.65271168964110       -0.06325351198924       -0.01993180467420
C           -2.81448006767810       -0.82668204395442        0.25006229137854
C           -4.10190271485887       -0.35887044701036        0.56191532106899
N           -5.15688732231257       -0.05641331956043        0.89448088915217
C           -2.48309168543480       -2.18993253321280        0.29473517748502
C           -1.13221805903462       -2.32200442422270       -0.00245422357702
C           -0.48278294589337       -3.56765853022671        0.02198034207036
N           -0.04142049854309       -4.62273874356822        0.10400411184696
C           -0.54932254860178       -1.01909961350926       -0.13768098152646
C            0.82569933160351       -0.87780658775437       -0.30261581962903
C            1.48690541358727       -2.00182287930422       -0.87889271602203
N            2.00770095398736       -2.79892639038029       -1.51555548963651
C            1.70550462014237        0.16954277068679        0.03638430708414
C            3.07603073052056       -0.04318481553009        0.30238709103376
C            3.81474128478788       -1.23154917470424        0.34381048449520
N            4.48200781480547       -2.15912592071476        0.44608029956181
C            3.60785036310533        1.21635424326760        0.68592072403520
N            2.70646266688084        2.16469689065891        0.61164447942110
C            1.52850314928840        1.60863204177720        0.23788357153436
H           -1.31629026726243        3.31257894734139       -0.64688075325188
H           -3.15978088083175       -2.99220577009647        0.52279162425132
H            4.61580199300444        1.41786564422128        0.99677491419831
