28
 energy: -51.446818321832 gnorm: 0.000758271741 xtb: 6.6.1 (8d0f1dd)
N           -3.16862521652532       -3.19009855182674       -0.87973942343194
C           -2.67159036119957       -2.18888018345076       -0.60572752105910
C           -2.14433639470934       -0.94460741722515       -0.26746272064402
C           -2.94789650830429        0.14707580784250        0.19818906633801
N           -4.28430386749750        0.10380056155558        0.33095678862796
C           -2.09989547175018        1.21185664859842        0.46434793584023
C           -0.77408006421846        0.85811395730221        0.14559733377187
C            0.22196568496231        1.82545654170029        0.06694272039908
C           -0.17602880806114        3.14824187794023        0.35890784559568
N           -0.45583024529731        4.24057917065917        0.58362993257461
C            1.61337740854839        1.73550684835753       -0.30770226842426
N            2.14419387079423        2.81842843805073       -0.93409919398080
N            2.46627245535821        0.81522539306133        0.01793373263186
C            2.49194171126004       -0.47205833326429        0.22119351688640
C            3.61506815890634       -1.16915406603181        0.69031837134576
C            3.37005401799198       -2.51046883631522        0.42494494689320
N            2.17745997565188       -2.73211766152883       -0.13747760089442
C            1.55023066408118       -1.54677704504050       -0.21727895186395
C            0.19608323790498       -1.52707964770075       -0.47315837092561
C           -0.79033972472673       -0.56747432634355       -0.26167602930146
H           -4.78472225654894        0.89316922930402        0.69690046274075
H           -4.78499217121779       -0.73703183645058        0.10231869100157
H           -2.40977723653963        2.18081197774619        0.80774990676440
H            1.62312445453895        3.67674050675139       -0.99279175657215
H            3.14521688387511        2.85362376501945       -1.02981238407794
H            4.50194301401476       -0.73727739132880        1.10766718319534
H            4.02927884486442       -3.33947517020294        0.61453875375963
H           -0.19178439805703       -2.51159911367894       -0.71896043329127
