28
 energy: -51.450134068517 gnorm: 0.000372221366 xtb: 6.6.1 (8d0f1dd)
N            4.76056494268970        1.85563542269694       -0.65962892268674
C            3.86808883481037        1.15595672225740       -0.46112631493388
C            2.82274619786849        0.26739778190106       -0.22509930786279
C            2.97809374204387       -1.14374947219266       -0.16488077359201
N            4.13339440412240       -1.80459218599367       -0.34839135164022
C            1.72586806787503       -1.69738880455753        0.11085156177583
C            0.75997328430041       -0.68674392902815        0.20413547395590
C           -0.59165297313778       -1.00849389683499        0.38322105836776
C           -0.83630863827234       -2.39909258720172        0.54891330108968
N           -1.06272211104503       -3.51145124686252        0.72017734658837
C           -1.78753268350396       -0.27671310259777        0.26759372305826
C           -3.04137308317586       -0.85156616333075        0.13619143276669
C           -3.91182052051659        0.17839163984369       -0.30479005697769
N           -5.20339287469869        0.04291898928833       -0.63291396017595
N           -3.29653621361331        1.36292783657600       -0.39426174445758
C           -2.02974245406960        1.18551966942349        0.00987721130681
N           -1.32057609269404        2.22740051447294        0.29494596660102
C           -0.09068902668710        2.54181457151447        0.55979412153334
C            1.12239310788511        1.92268803618585        0.25447186965531
C            1.47351406924792        0.60324020385253        0.02603350416227
H            4.16835328396913       -2.80325142517479       -0.25291485661058
H            4.98142428596834       -1.29592338197760       -0.52730580233442
H            1.53198672319525       -2.74891474210734        0.21036410016698
H           -3.31346921691192       -1.87689705116048        0.29424881261544
H           -5.68879352695046       -0.81871157592055       -0.46172123799334
H           -5.71462358654339        0.86409451624519       -0.90401306090575
H           -0.00534440473303        3.54012957449442        0.98633972727770
H            1.96954043327644        2.60185136689216        0.24571558245194
