29
 energy: -55.970188018497 gnorm: 0.000640306514 xtb: 6.6.1 (8d0f1dd)
N           -4.55642873322395       -2.48800503820482        1.21772888127874
C           -3.94113364798390       -1.57491104356664        0.88621003413240
C           -3.15664960423387       -0.49680109017452        0.47244327018015
C           -3.59209505259094        0.79481886984118        0.22355621141541
C           -2.49937350297869        1.57505185809229       -0.18892889324219
C           -2.54986508004127        2.93654617750970       -0.50280875068275
N           -2.61244478110540        4.05454763517850       -0.75892065046847
C           -1.32143389869885        0.78392278168088       -0.19510679734777
N           -0.16878211983825        1.36590512862540       -0.38318151370253
C            1.07590547033576        0.98654748139221       -0.28542105622350
C            2.09889138401052        1.93747873182441       -0.23204808224202
C            3.30073509045930        1.31640255399092        0.12838834535611
N            4.48565590346585        1.91022965640955        0.32122104607729
C            3.06746755286682       -0.08546006673615        0.26271519019312
C            4.04824182209185       -1.01851482377832        0.59426089574401
N            4.88823841929905       -1.75504553064757        0.86821317001596
C            1.72457115761246       -0.35799044624153       -0.04881587845656
N            1.29720684680136       -1.57540298277637       -0.21819316697446
C            0.16029772712088       -2.19134989179000       -0.37569892520079
N            0.26502681346308       -3.42807674307044       -0.91743704815994
C           -1.15060258562039       -1.81649422773364        0.06760725588224
C           -1.75261668995518       -0.59885992843149        0.16553736007410
H           -4.60108826754658        1.14977762910396        0.33394588605284
H            1.95439882647982        2.98782462830431       -0.39507275578015
H            4.58671032526723        2.90029822990302        0.18477193412423
H            5.28451887047384        1.36508223870507        0.59740641804417
H            1.18082132879493       -3.77169201085071       -1.15051467915102
H           -0.52446792164946       -4.04634166658887       -0.96601826329205
H           -1.79040053506629       -2.66503944255993        0.29240303745249
