30
 energy: -50.089112878433 gnorm: 0.000644418894 xtb: 6.6.1 (8d0f1dd)
N           -5.55214272944109        0.18023672549437       -0.35662259464457
C           -4.41220649193678        0.06637832327848       -0.24464022634894
C           -3.03054744934960       -0.03214025786499       -0.09131043102758
C           -2.28479173635741       -1.21294772118729        0.08248976475948
C           -0.92764934739269       -0.91814507667212        0.17750029657364
C            0.03296097802366       -1.95861079223940        0.34544136212080
N           -0.47833923524221       -3.13072933796280        0.80950386940449
C            1.37057398591025       -2.04640810701929       -0.04505721048806
C            2.40806951643806       -1.16851495190757       -0.34313378666949
N            3.48863666273763       -1.73488223907393       -0.93664673008712
C            2.56927394579110        0.19956109502203        0.01454870249532
C            3.82329966644647        0.79704638061698        0.18641425987032
N            3.74504052227207        2.08899097207288        0.54389899010902
C            2.45697052770328        2.38083479495142        0.57704632327722
C            1.63254178577010        1.26259241181493        0.29050222538730
C            0.25275625889481        1.40403103738822        0.23091706863025
C           -0.80579429795172        0.53554258062354        0.08829710634980
C           -2.13849051189595        1.04850960300649       -0.06345644073211
N           -2.50463547102901        2.34098702275315       -0.25368380404192
H           -2.74168442399696       -2.18645075146805        0.06015784062024
H            0.10927475640417       -3.93860136958622        0.90657756038275
H           -1.41765343531970       -3.17793582497798        1.15563622129705
H            1.69072525065033       -3.08405629000550       -0.12780195008653
H            3.52015352767185       -2.72345539184254       -1.11057553610021
H            4.30831076126003       -1.18553491232747       -1.11641470964894
H            4.79608883865554        0.33802029375082        0.13041152384183
H            2.12133472161068        3.37268426894348        0.82471457956145
H           -0.04107592656095        2.44766568731614        0.31862337168846
H           -3.48675679901490        2.55508000821746       -0.20540580404391
H           -1.86362524365043        3.08231591358483       -0.02921904694988
