35
 energy: -60.713190132450 gnorm: 0.000572585622 xtb: 6.6.1 (8d0f1dd)
N           -5.41149915712116       -0.98734570075080        0.50118849788350
C           -4.30348720154459       -0.73027722123370        0.31302784013743
C           -2.96366557989605       -0.41876083169054        0.11666782606914
C           -2.45836637795721        0.82075947214016       -0.33705528860206
N           -3.25864806823690        1.87742729412124       -0.71630796844170
C           -1.05569228657794        0.76977205810969       -0.29370106341979
C           -0.25258988304466        1.90911113505911       -0.54386559133385
N           -0.72896586758469        2.84273705864332       -1.42371927212460
N            0.76733650836767        2.31444147140424        0.16862963433865
C            1.75403488268077        1.74968765964927        0.80388706466221
N            2.30455784759861        2.45522584868301        1.81806838038817
C            2.40966953836544        0.55608715439920        0.39186977674264
C            3.79533968927305        0.41864152310147        0.33190000001125
N            4.16786107720720       -0.74180027147902       -0.22140875812680
C            3.04232320970925       -1.40791345735139       -0.48297368830877
N            3.11717022503981       -2.69266611557435       -1.03626220463362
C            1.87474945051717       -0.67518824589697       -0.13420016364063
C            0.57516495623725       -1.23722168475090       -0.03592089174151
N            0.53524033811423       -2.58868529018749       -0.07827485319640
C           -0.66717545176592       -0.57617866769789        0.11953617878744
C           -1.87481771431387       -1.26659267414648        0.38574250557593
N           -2.03112651138078       -2.57939855762773        0.81881372220982
H           -2.85550722609652        2.79427107399636       -0.58471058249910
H           -4.21190844843588        1.80119299524368       -0.38961462304148
H           -1.34279358286864        2.52437077658842       -2.15409588899731
H           -0.10957546444225        3.60707100974398       -1.63920635569135
H            3.20089063288573        2.17293525125868        2.17269096176320
H            1.98600773536151        3.39447045872741        1.98473528370911
H            4.54016742850932        1.14944351209887        0.59617967670326
H            4.09191702582853       -2.92163804901054       -1.19601424517697
H            2.58960788896784       -2.78332393115376       -1.89809734267249
H           -0.33981362579690       -3.05930784051017       -0.23601767047301
H            1.40615492273416       -3.09044465755741       -0.16312302188888
H           -1.38168406660206       -2.85925917324247        1.54260668212103
H           -2.99023265433173       -2.78341898560722        1.07198814870782
