36
 energy: -61.211614391844 gnorm: 0.000581629915 xtb: 6.6.1 (8d0f1dd)
N           -1.90652896578876        4.18506373278617        0.67213423054871
C           -1.57806359965041        3.09658018690172        0.48722662746846
C           -1.18321877193699        1.76476447152899        0.25174230973681
C            0.10057197425860        1.67642478093245       -0.30228163652234
C            1.06422447201304        0.69682355268243       -0.33384344114574
C            2.41511962765860        1.07890572831735       -0.63075834145946
N            2.82902645090678        2.23378184053461       -1.20254196258020
C            3.27484267494435        0.10553033616820       -0.10784439323457
C            4.66533672788753        0.14260309966092       -0.11233129912815
N            5.81725163177194        0.16023851918548       -0.10830425943980
C            2.48504480349457       -0.93165472223265        0.45334669345780
N            3.05053248241885       -2.03446222524526        1.05882562086711
C            1.11949783676931       -0.65863852989289        0.22621979046717
C            0.11813815981008       -1.64757452874201        0.25408982636818
N            0.51676310047884       -2.90640209341643        0.61651506023468
C           -1.23893164461068       -1.55261131228501       -0.14279603944527
C           -1.91259413401262       -2.68302709097591       -0.66335835591343
C           -3.24519043893006       -2.38674104396513       -0.86201603895850
C           -3.47269950132268       -1.08589206496801       -0.40860097969998
N           -4.72027604020059       -0.46475099814284       -0.43463122784441
C           -2.23910847759836       -0.52498760892893        0.01408018232292
C           -2.17321315883149        0.79259826698521        0.52677825699161
N           -3.27318279015746        1.22808945756209        1.18543841721904
H            0.46133169044855        2.65009223856639       -0.62517060467999
H            3.81065953358647        2.34269009096339       -1.39072726125595
H            2.18872176486765        2.79005410686096       -1.73977783502402
H            4.04986498751667       -1.94511552877041        1.19212085954531
H            2.56917872901145       -2.37186261310880        1.88083497224541
H            1.46543401626668       -3.17956092746087        0.40681021858974
H           -0.18069008700220       -3.62724454606629        0.52640135887511
H           -1.45547468754074       -3.60952774222836       -0.96677707276101
H           -3.98689984688490       -3.03449834496084       -1.29299457080587
H           -5.37063719457753       -0.94934234188057       -1.03902851408586
H           -4.69424141297988        0.52603635997685       -0.63965266408285
H           -3.34473453034000        2.18589673902940        1.48547022911607
H           -4.00573345034155        0.57754061982448        1.40824680751488
