30
 energy: -55.693521450140 gnorm: 0.000843752094 xtb: 6.6.1 (8d0f1dd)
N            4.79428393318296        2.50573138778173        0.00264665248991
C            4.10514593691407        1.58487020817126        0.00247709226296
C            3.24073555258784        0.48782502887032        0.00179990532247
C            3.63011168445950       -0.85381554637486       -0.00207019987504
C            2.48759546022715       -1.64944943709970       -0.00228413997381
C            2.46225023760699       -3.04750229705782       -0.00580311981385
N            2.46040258667162       -4.19605732168570       -0.01094619213701
C            1.32461324303346       -0.81650479237287        0.00112718169471
N            0.16034298797646       -1.38915061343960        0.00191316339860
C           -1.08573877992091       -0.98956454859283        0.00253901033722
C           -2.08906171228337       -1.96495461178729        0.00183409050674
C           -3.34939566273715       -1.35700190986690        0.00039643625163
N           -4.54272923913152       -1.97255106516300       -0.00291896253607
C           -3.15052006676291        0.04852294594374        0.00045696898181
C           -4.17810578902288        0.98874701273320       -0.00044370507087
N           -5.03362484221100        1.75915532131819       -0.00229415868919
C           -1.76257839915594        0.33929059819273        0.00247389515385
C           -1.33949513668684        1.65070027667421        0.00419814335265
C           -0.10093506489234        2.31263067165231        0.00763568584730
N           -0.19089079497023        3.67447700545236        0.02477470601513
C            1.21768304682614        1.82363819182366        0.00719958445006
C            1.81624076851655        0.58404892127112        0.00381438650774
H            4.64472452256683       -1.20960286754411       -0.00437212426610
H           -1.89331180407315       -3.01963869101973        0.00185449822198
H           -4.59452433531477       -2.97515442161460        0.00304017253956
H           -5.39230354580188       -1.43559343098862        0.00114912243897
H           -2.17481373895353        2.34881574823737        0.00446823489523
H            0.63597600681051        4.24304074316449       -0.01689711225256
H           -1.08517937208106        4.12948710095079       -0.01823795307655
H            1.94984442691943        2.62945931677027        0.01013354322257
