34
 energy: -57.775177254811 gnorm: 0.000509186189 xtb: 6.6.1 (8d0f1dd)
N           -5.49772989674588       -1.75906925675828       -0.56942626023105
C           -4.39991063777035       -1.48604032736453       -0.35699790882207
C           -3.08058069656393       -1.10676581982887       -0.11476066264449
C           -1.97643223992487       -1.92563371165354        0.05385899885777
C           -0.81863698188045       -1.12696060496232        0.18970495238554
C            0.41515717568048       -1.74473106990221        0.33667355010285
C            1.72739486595321       -1.34444244249698        0.16977960126313
C            2.77928896488666       -2.31219231750068        0.24451043988142
N            2.66976146840140       -3.58893314009066        0.70815122678556
C            3.94131734723090       -1.76132693275242       -0.30231132989328
C            3.65942224607131       -0.47463036076442       -0.71189740222764
C            2.31990018144561       -0.13828650279129       -0.39518059327392
C            1.83770007441733        1.16568262025522       -0.53115066873123
N            2.54112552334337        2.01918711192691       -1.31787352314468
C            0.76979810692747        1.81143936183246        0.19280475075866
C            1.10932354218785        3.13361134064769        0.53678572631614
N            1.39454889068728        4.21006076604512        0.83762751270504
C           -0.53661509937026        1.44160326357768        0.52798743477755
N           -1.28921482137304        2.38886026382674        1.15634577768650
C           -1.25243795120788        0.25777587869773        0.18092495440262
C           -2.64274654794305        0.24698616552484       -0.00412158408728
N           -3.51337029623437        1.31476924935412       -0.06929304824744
H           -1.98795220800308       -3.00003708728764        0.03359831144838
H            0.31123562478262       -2.81060027497014        0.52108745038371
H            1.92215222445801       -3.80955724864043        1.34375129398019
H            3.52698155248842       -4.09671151627891        0.84632400157116
H            4.89194037898944       -2.25648978592086       -0.37809560333257
H            4.40299034217681        0.18215649045721       -1.12820691162513
H            3.40812340062203        1.72351076909772       -1.72850804884272
H            2.36007021505432        3.00808890173695       -1.26627278495630
H           -0.84820211214738        3.23025329888518        1.48957583939544
H           -2.15965648073960        2.11130206394138        1.57554673402581
H           -3.12632186548726        2.18399437247853       -0.40655476704018
H           -4.41157544011311        1.08535980538098       -0.47141289052732
