28
 energy: -46.653919098646 gnorm: 0.000953243706 xtb: 6.6.1 (8d0f1dd)
N            5.37318164156388       -1.63743798094188       -0.18567142113600
C            4.30429652866738       -1.22420358785550       -0.09486791478440
C            3.00893281423390       -0.71232304476351        0.02150185458463
C            1.83074776932323       -1.44600829700505        0.15168743048296
C            0.73464359800583       -0.56486543962201        0.18636317443119
C           -0.54976151045891       -1.12192539121526        0.25126573879925
C           -1.81262229580674       -0.63206967665158        0.06947444005022
C           -2.97897825139261       -1.48095060897183        0.06289998870606
N           -3.03027911883092       -2.80370804451245        0.31078908426804
N           -4.08845357691529       -0.81823935796974       -0.28086463359972
C           -3.71820896950745        0.44497910303514       -0.49738386247184
C           -2.34907102317009        0.67793272542738       -0.29189424293014
C           -1.82228240587297        1.95990821815889       -0.38115151478426
C           -0.60744294370978        2.53795052097293       -0.09216797692236
C            0.67606058302313        2.07423851211274        0.24358723559564
N            1.51469714472981        3.05445321260416        0.65502298426646
C            1.27216521456737        0.78125639531583        0.13708269553331
C            2.66377125228009        0.64802773570355        0.03479738181517
H            1.76752143451256       -2.51872417323137        0.18550998273741
H           -0.51028130874355       -2.19730759691371        0.40819369715396
H           -2.26435385134035       -3.27413864032702        0.75829574375480
H           -3.94212111291244       -3.22478298942299        0.34571434610299
H           -4.45435681330402        1.17619909903227       -0.78092944138602
H           -2.57869880418458        2.68387266184266       -0.67237971049485
H           -0.64442705499378        3.62411921822069       -0.11545506062146
H            1.20943648663531        4.01169919687841        0.67276965184438
H            2.45738552494897        2.84513695207554        0.92906645782928
H            3.38568740835196        1.43561144392378       -0.09433610512430
