27
 energy: -47.727747409495 gnorm: 0.000367168563 xtb: 6.6.1 (8d0f1dd)
N            6.01469956458849        0.11276700298649       -0.31564934910186
C            4.86866656757613        0.11756838096657       -0.25470600030403
C            3.46832942219398        0.12343988447161       -0.17931692448315
C            2.65748638126879        1.25057988033604       -0.02762229731837
C            1.30712694437265        0.85145094930951        0.00845209330789
C            0.30066782872866        1.80264976433551        0.04347962961890
C           -1.08111951312037        1.74620136603074        0.02495261541468
C           -1.82708167155397        2.94407139458297       -0.14011195695286
N           -3.13066333918513        2.73610520689683       -0.17183515701024
C           -3.30915020073769        1.42728740991636        0.03569188533170
C           -2.10116156196918        0.71787220591341        0.16661251842474
C           -2.08238888900904       -0.67058397472653        0.42972708118479
N           -3.21424662654138       -1.18828153120019        0.93948058015939
C           -1.05748353495698       -1.63182177407941        0.15249615037747
C           -1.51895575180262       -2.97471637609800        0.17256298527186
N           -1.88359785476546       -4.06390709105812        0.17991434376995
C            0.30078552584530       -1.57542512260421       -0.11498561576725
C            1.29668056200012       -0.60321823666716       -0.11911633522364
C            2.63723743695898       -1.00268422299422       -0.25107560232222
H            3.00650362232899        2.26484254522145        0.04118271985645
H            0.67818728695908        2.82175333926548        0.03293245195327
H           -1.42116565454205        3.93119585172336       -0.26646514675051
H           -4.31161030800168        1.03606839293421        0.00949955251935
H           -3.99923627261754       -0.59259144455745        1.13584220662303
H           -3.31849644996090       -2.18441180710917        1.05267010294314
H            0.71366695007371       -2.56622480325569       -0.29676107793637
H            2.97651759846884       -2.01576072524000       -0.37066795078593
