25
 energy: -48.287901962262 gnorm: 0.000624130202 xtb: 6.6.1 (8d0f1dd)
N            1.67643938177786        4.13206947906106        0.64205936501855
C            1.77406606630991        3.00640009860028        0.43072970357366
C            1.85987549358299        1.63513077294676        0.18142880690640
C            2.92927093088731        0.96826021063472       -0.41174799895586
C            2.63682520283962       -0.39992096492921       -0.50618085687590
C            3.48420628731211       -1.38202980823015       -1.02892048838831
N            4.18536776889743       -2.17590177014544       -1.47271244241925
C            1.37146725815331       -0.63852007813058        0.08700463153878
N            0.98678122930032       -1.80640913691232        0.50423283287881
C           -0.12594208836129       -2.29575296261343        0.96201851319455
N           -1.34215118644968       -2.08481771771908        0.53733216681819
C           -1.99135978423265       -1.04598690441067        0.13269346708776
N           -3.21550512447366       -1.17609897204765       -0.40268161452777
C           -3.78450012733649        0.02766364457748       -0.37548906130389
N           -5.03066246391449        0.22117197707675       -0.81010194224418
C           -2.90519389081938        1.03689577062297        0.13908122523907
C           -1.70892719127342        0.41274652884047        0.40879218344558
C           -0.49634229316494        1.09815549734933        0.60332524991584
C            0.80162237986389        0.70168347284441        0.41759709258641
H            3.84329186028697        1.42806654836990       -0.74294918321627
H           -0.01491121139799       -3.13944539304539        1.63862076943383
H           -5.54536620965233       -0.57174873237949       -1.15318549600831
H           -5.48096994648770        1.11412110499454       -0.72096741323372
H           -3.13701556944300        2.08042278615834        0.22986044482260
H           -0.62320484400859        2.17269412228922        0.70962967571457
