34
 energy: -57.780619530738 gnorm: 0.000943220630 xtb: 6.6.1 (8d0f1dd)
N           -5.68433965815342        2.27841724299558        0.44553135496997
C           -4.66422606571022        1.78137726332870        0.25006225372746
C           -3.45120828406109        1.13066469345953        0.03697880598879
C           -2.20538004060421        1.69568985915540       -0.19871205162155
C           -1.22982142502586        0.68130959101845       -0.27567227284833
C            0.10128804909983        1.08162394999192       -0.40120026025498
C            1.33054558942513        0.48525206648030       -0.23987720031687
C            2.52537338114806        1.26976154679815       -0.27751440941511
N            2.63697587946915        2.58553350912121       -0.56459586888810
C            3.61423427319555        0.46617457585033        0.10936625775217
C            4.93740119108856        0.88070919655922        0.22348048742340
N            6.03363977966311        1.22160307810163        0.31837870826964
C            3.13300396833176       -0.83658970833537        0.36580857612709
N            3.94185991274822       -1.86236669224451        0.72448894070995
C            1.73271155799458       -0.87554206001416        0.11697256146141
C            1.05558417420673       -2.08276289489989        0.11925312073238
C           -0.22380123754000       -2.51196346012425       -0.18533605476012
C           -1.47553623877669       -1.92071025519533       -0.37275823517929
N           -2.46418277120939       -2.81535740321033       -0.70527181815619
C           -1.92404649493679       -0.58838667285164       -0.16380427184553
C           -3.28549166427980       -0.28068358288526        0.05377844226015
N           -4.34244065380301       -1.13973134835796        0.26096972270045
H           -2.01016557114509        2.75053246487014       -0.27048888207948
H            0.16522495362201        2.15337891018123       -0.57059237067542
H            3.55932440745754        2.97819707978082       -0.64645560680234
H            1.87959415337525        3.07435628902845       -1.00794129158816
H            3.54673174389464       -2.70161736964797        1.11052867528104
H            4.88930323733233       -1.64109154231815        0.98178170776860
H            1.71285336821375       -2.92336433217554        0.32590642318821
H           -0.28094085534737       -3.59439915292239       -0.27553978582250
H           -3.29342301122695       -2.45301491784069       -1.14653331989262
H           -2.17413113733592       -3.73440636934913       -0.99827327108290
H           -5.16896675943834       -0.68203429904734        0.62204440105170
H           -4.12219821287094       -2.00925551410132        0.72561208101762
