33
 energy: -58.861253694093 gnorm: 0.000718414775 xtb: 6.6.1 (8d0f1dd)
N           -6.11423274229852        1.41311946568163       -0.04443096476406
C           -5.03838027125674        1.00943621289404       -0.08394902326501
C           -3.71250636733770        0.57151025267664       -0.10562702471861
C           -3.23829533011209       -0.69964587574425       -0.42154562213525
C           -1.84024342428213       -0.74115641811655       -0.26753913108719
C           -1.18063780267599       -1.95170736344740       -0.41527286409236
C            0.08411101646721       -2.43261785932924       -0.10230408144554
C            0.13847669846628       -3.84485616024029       -0.19537495878932
N            0.17819781432929       -4.99088196007771       -0.28090162949498
C            1.31424060944130       -1.83596979506072        0.31062547327899
N            2.18363294272172       -2.69305073510565        0.89001019551715
C            1.79372629314666       -0.52218366742096        0.08735320923532
C            3.17303259613779       -0.28745367289142        0.00037716752698
C            3.41808583891896        1.07064631475682       -0.22571212049398
C            4.65642127572548        1.67989670260902       -0.43150877902505
N            5.65905814531027        2.21464941113791       -0.60949951499802
C            2.17740936779040        1.73657848314855       -0.23824104066086
N            2.04502288055007        3.08072843375567       -0.38822680746202
C            1.13800613491603        0.77295771220610       -0.05131711858254
C           -0.16913467354703        1.21107412095327        0.09565085740125
C           -1.41141897699050        0.60547119204463        0.09364343617458
C           -2.59950584274389        1.38337559502197        0.22628116532673
N           -2.69563904087859        2.69235073943627        0.55921984183034
H           -3.85416136272705       -1.53397472151932       -0.70417491391390
H           -1.84875936683391       -2.74391184614348       -0.74551636070754
H            1.97454904791238       -3.67762262657992        0.92827154740351
H            3.09805635487038       -2.38220736227157        1.16477143632635
H            3.95627612455466       -1.02465230065969        0.00176912847931
H            2.87406200274646        3.58520764076750       -0.65843869838981
H            1.17145436453287        3.46191014946791       -0.70767888974260
H           -0.23383543474629        2.29247808508343        0.18404253040228
H           -1.93573518538013        3.14759375994372        1.03444305930543
H           -3.61880198482766        3.06369222492294        0.71329299926089
