33
 energy: -58.846105489845 gnorm: 0.000884037825 xtb: 6.6.1 (8d0f1dd)
N           -2.95287828481416        3.60919397435346       -0.78996086000804
C           -2.11085343481352        2.89383885421111       -0.47007631505145
C           -1.03660207795836        2.03154709852552       -0.13678670239191
C            0.19128484299431        2.69719712041721        0.02059841078061
N            0.15212823044091        4.06791952417369       -0.07400789568126
C            1.46120480022941        2.20692809315508        0.38312662932433
C            2.12328623714866        1.00418150413057        0.33968055480452
C            3.50766298062618        0.96323618366668        0.61483547411954
C            4.01445344291609       -0.28341541454917        0.27014888598957
N            5.30799427472096       -0.68204023403936        0.31806560259826
C            2.94141369551016       -1.07473949439102       -0.20550119487019
C            1.75740613375171       -0.35324632571492       -0.12651095683728
C            0.51084888718131       -0.97516482701155       -0.32365387576714
C            0.63531003806802       -2.28751570116676       -0.85970695322922
N            0.77527630455107       -3.28757155855938       -1.40484415916789
C           -0.80226188323920       -0.60414724628879       -0.02936266779205
C           -1.81578709935946       -1.58450668730544        0.12701162287410
C           -1.70385946098360       -2.96855097935579        0.24904503639588
N           -1.75597464629534       -4.10447494037358        0.43057556901013
C           -3.05802840653602       -0.93549492295898        0.33207469099574
N           -4.23043336666854       -1.55593388042757        0.55527464366077
C           -2.83430153360029        0.44513355249014        0.25396224958726
C           -1.47644884549288        0.70015887907223        0.06564383791157
H           -0.68216456211912        4.51685188214614       -0.41122985742334
H            1.01428742908493        4.57428485050616       -0.16230935979454
H            2.12160846025003        3.01716415159523        0.68388944586524
H            4.08269437696184        1.79245244844829        0.98330956129384
H            5.96629574599412       -0.13859780861074        0.84806431777691
H            5.51568573721013       -1.65548939936980        0.17909787833234
H            3.03233282621789       -2.09684432221182       -0.52200478670880
H           -4.25192936543234       -2.55726968606715        0.64255045011926
H           -5.05832954201920       -1.02346174238017        0.75053464615074
H           -3.60015931882496        1.19114461019116        0.35530507253299
