30
 energy: -50.103441223189 gnorm: 0.000557541545 xtb: 6.6.1 (8d0f1dd)
N           -5.38617013849891       -0.82924922296013       -0.39823327411287
C           -4.28556201405840       -0.51785397382413       -0.26441824149937
C           -2.94305740667521       -0.17891394940660       -0.11586201551521
C           -2.41088422554311        1.11806314744138        0.05706555815196
C           -1.02948406533544        1.04422586557714        0.10558450545359
C           -0.19150236155504        2.17171899687478        0.38461167044949
N           -0.70152501132226        3.11430313524185        1.21209149594567
N            0.95071268303459        2.47672359717821       -0.16168060853459
C            1.99247283427840        1.86073204409115       -0.64004429766663
C            2.51663564111624        0.60794050379679       -0.35724596309537
C            3.88010999823672        0.31004169758473       -0.56517099157702
C            4.14653475803041       -0.98102342081130       -0.15514447508274
C            2.94740553759449       -1.56314421506361        0.27618140035009
N            2.81458951832066       -2.86251637912457        0.67945687958409
C            1.88935734381717       -0.61211581369956        0.13968666081264
C            0.56211975140869       -1.00892986331083        0.17423038797685
C           -0.65114044568128       -0.35575350012922        0.00741540954196
C           -1.87445390614055       -1.08650525052700       -0.12081738834257
N           -2.01132112774638       -2.44724705208224       -0.19317711262609
H           -3.00624599821285        2.01404674056415        0.07731189402302
H           -1.64396987602207        3.03105540161515        1.54793117020105
H           -0.20692014901694        3.98205817410650        1.32467377144442
H            2.62162919658866        2.51266857037082       -1.24444100533395
H            4.60308203236348        1.01159779524302       -0.94084200819762
H            5.10334082378368       -1.47089574622736       -0.16702397801043
H            2.03365994455001       -3.09603953179019        1.27034815610196
H            3.66874021174021       -3.35359627501848        0.88597625555282
H            0.44356252337676       -2.08035491854706        0.31640911452640
H           -1.24358730183104       -2.97513118403067       -0.57498959293080
H           -2.92582187130017       -2.77362865873264       -0.46544730689127
