36
 energy: -60.414530968118 gnorm: 0.000926874526 xtb: 6.6.1 (8d0f1dd)
N            5.48183701800070        1.45920092049993        0.96900303256048
C            4.43839210737658        1.12410844686605        0.61272758471165
C            3.18784792038134        0.67351749472157        0.20266714582497
C            2.11641738078964        1.44734639531562       -0.26019329612827
C            1.01021317245755        0.61775063279309       -0.46848342792134
C           -0.24363121030775        1.19341685362592       -0.81858959937421
N           -0.17769871509448        2.33798910062857       -1.54162639405793
C           -1.50049078274830        0.84956462140802       -0.29816239631375
C           -2.48406823002560        1.82709479721538       -0.00077114130878
N           -2.43740546519818        3.19347159980341       -0.22782453557790
N           -3.54058799888115        1.31236542294706        0.63705635871710
C           -3.32461818712204       -0.00372385756561        0.72632236751800
N           -4.29785298734891       -0.80347790944739        1.30942868593206
C           -2.08030600461052       -0.39788980024016        0.17250230508111
C           -1.75692955059111       -1.73325821170515       -0.13903087352250
N           -2.76961161524135       -2.64169207260022        0.02711098575503
C           -0.56291928405496       -2.29757221269711       -0.60802362424235
C            0.78092569911727       -1.95830338585386       -0.55764066516813
N            1.63860386742279       -2.98607039025133       -0.84805914370155
C            1.42513303845015       -0.73806103805951       -0.20197832216379
C            2.77462066506344       -0.67542951081633        0.20610709265410
N            3.61562231728102       -1.72985126087663        0.54741087953940
H            2.13598695157395        2.52057916687869       -0.32765282755837
H            0.70045404211869        2.61633505116305       -1.94085483528686
H           -1.02770684435206        2.77161664392259       -1.85992169493625
H           -3.19529807977732        3.64980331395464        0.26470988346079
H           -1.54267447127375        3.61917758749881       -0.01905042788711
H           -5.02652189150743       -0.22519844691117        1.70901524491836
H           -3.93599996817885       -1.47313280787938        1.97617363633097
H           -3.71506563976325       -2.29079485237605        0.04926192372180
H           -2.63636913306327       -3.56453906494137       -0.35120775698996
H           -0.70756433742220       -3.32437583525083       -0.94235598023902
H            1.26200181694328       -3.83117704308742       -1.24201049736067
H            2.59525093347121       -2.76118222140964       -1.06517864017010
H            4.45137954420943       -1.41525290422742        1.02362542459165
H            3.15930298500093       -2.48938146644704        1.03404279119560
