34
 energy: -56.976923103595 gnorm: 0.000356365558 xtb: 6.6.1 (8d0f1dd)
N            5.30010547522366       -1.67654350774456       -1.00638746402738
C            4.26149212115170       -1.29198572652946       -0.68763312837752
C            3.02098811717054       -0.78702254753146       -0.31322163233319
C            1.85211486091818       -1.51510098379993       -0.05603555394580
C            0.80010889671898       -0.62726857077759        0.19886126861240
C           -0.48977449106838       -1.11311833720368        0.58124779411293
N           -0.45496057012575       -2.32136722482672        1.23189691682603
C           -1.75594458535383       -0.61921736768763        0.24440862393791
C           -2.91022943154964       -1.44565362694875        0.15884976824698
N           -3.01089373159561       -2.79114277209491        0.46326307240840
C           -3.97898191584317       -0.70917872717280       -0.36047572083546
C           -3.54574130054061        0.57675559065932       -0.63590550479032
N           -4.32204455242352        1.54965146467110       -1.19926083955918
C           -2.16253156347964        0.68822496498417       -0.27312407056697
C           -1.50593490440129        1.89600003941240       -0.36207353737777
N           -0.42923829000635        2.38416947957425        0.20519655122542
C            0.73160753962319        1.92010692225884        0.56486999041526
N            1.49523336177418        2.79012483229725        1.27737246711856
C            1.35645848171791        0.70204186044445        0.15700736223451
C            2.72481362488112        0.58288426160389       -0.12791449459152
N            3.66105047798815        1.60546003759979       -0.19426840415356
H            1.77831359987495       -2.58506664475365       -0.13850935547342
H            0.44328051753173       -2.61561330687005        1.57704142080717
H           -1.25406932108391       -2.56792275252356        1.79095357086761
H           -3.86139705103778       -3.20439100545659        0.10438614738332
H           -2.19218181280464       -3.33868012488276        0.23300961509611
H           -4.96630997004770       -1.09491848148066       -0.54193297999456
H           -4.01498404968825        2.50446672493069       -1.12622541254407
H           -5.31769603710732        1.41217619010868       -1.14600734105267
H           -2.03699858156499        2.67586344821734       -0.90923846219566
H            2.37060671830889        2.48200729269014        1.66075560666041
H            1.06968200524369        3.63561608447878        1.61502906147926
H            3.29275886273440        2.49471039272892       -0.50196452626559
H            4.50261512226205        1.33982404092493       -0.68797375584797
