27
 energy: -52.508729818680 gnorm: 0.000105237550 xtb: 6.6.1 (8d0f1dd)
N            3.28217087062350       -3.64937401648048        0.00285742491594
C            2.97972619929116       -2.54069971549253        0.00181217855752
C            2.57015073910912       -1.20324654452723        0.00102765462505
C            3.41957285574879       -0.09497957609546        0.00035030593969
C            2.64178702095775        1.06038681945442       -0.00051065666283
C            3.12692623746151        2.37374238709838       -0.00134354591642
N            3.54532039374272        3.44241126605361       -0.00204946249820
C            1.25671693787145        0.70537741345238       -0.00045160799278
N            0.37686025767988        1.65727389230948       -0.00143552431975
C           -0.92878486193689        1.70162652515767       -0.00181470259067
C           -1.59374667199831        2.94082880723249       -0.00329126446267
C           -2.95702544428685        2.66445930496916       -0.00332822321415
N           -3.21212944848360        1.35667124727867       -0.00196791431415
C           -2.03625326724193        0.69816906982525       -0.00102738733896
C           -2.13613292336180       -0.69063972502993        0.00048658923313
C           -3.50282266044709       -1.10002149267208        0.00075147486588
N           -4.57690441113344       -1.50199205525047        0.00105735940063
C           -1.19946315052839       -1.75733875609083        0.00172089147088
N           -1.72953737928886       -3.00808419575016        0.00318658141673
C            0.20838670323796       -1.72927136858571        0.00158034576239
C            1.20550748532990       -0.77989166853501        0.00069386179421
H            4.49395983421069       -0.13057254152966        0.00044131340555
H           -1.11394733265655        3.89829247869216       -0.00418374573408
H           -3.77130334873032        3.36627245432983       -0.00427690603097
H           -1.13177843490465       -3.81556406356876        0.00398398485785
H           -2.72647858497759       -3.14348491632830        0.00330531515892
H            0.61929982901180       -2.73823624401686        0.00250014657123
