24
 energy: -48.544497131844 gnorm: 0.000541180271 xtb: 6.6.1 (8d0f1dd)
N           -2.05056258851526        3.70295771311282        0.00304150975344
C           -1.45474894189891        2.72403578180180        0.00192126022171
C           -0.69942989180828        1.51391536295335        0.00169545891125
C            0.66217183722032        1.75872149257787        0.00167446634196
C            1.80738895259976        0.94940811841483        0.00073220131542
C            3.01997654755653        1.70060580962645        0.00104924989755
N            3.96049288351951        2.35364914886904        0.00365526356931
C            2.01458453849766       -0.42428547740995       -0.00088536857090
N            3.28234097959936       -0.87770521980608       -0.00112874158832
C            3.18503116011892       -2.20049696309990       -0.00092590046083
N            1.95058390570099       -2.70207157710872       -0.00042851087519
C            1.13027491615008       -1.64855546803538       -0.00092971875253
N           -0.15593880090171       -1.86504178630729       -0.00123660282828
C           -1.22514685108812       -1.14150179832632       -0.00103515826420
N           -2.38807472729243       -1.80235606115865       -0.00264227461334
C           -3.38122369708302       -0.91158767983166       -0.00143495298782
N           -4.65654108912572       -1.29073053839398       -0.00219250337607
C           -2.88935556824109        0.42819403037077        0.00070641197869
C           -1.51440832826011        0.35579400621082        0.00094970894011
H            0.90464649988353        2.81929927855481        0.00254983424924
H            4.05500147887555       -2.83108564209803       -0.00118630728320
H           -4.86239000152802       -2.27562030311580       -0.00362126440088
H           -5.40213398255967       -0.61731560778828       -0.00116860983760
H           -3.49897743442001        1.31163403318806        0.00188720436002
