27
 energy: -47.726327984947 gnorm: 0.000862152310 xtb: 6.6.1 (8d0f1dd)
N            4.85185715480183        1.86745277356005       -0.02572129081627
C            3.96158422371210        1.14009770915972       -0.01884626784429
C            2.87318296413545        0.26245606012723       -0.00818235159636
C            2.96847527015380       -1.13279501791704       -0.00600182076611
C            1.68121349555641       -1.66098584690712        0.00403040862237
C            1.35278675684729       -3.02054132337241        0.00962801745419
N            1.10075265177417       -4.14123179429908        0.00794217402969
C            0.72676668286082       -0.59409407871400        0.00763547864563
N           -0.53706711321119       -0.91042197671831        0.01674957308870
C           -1.66730696983619       -0.26093383025804        0.01681713824408
C           -2.85589602553501       -1.00530786854275        0.02243555441702
C           -3.95340413181091       -0.13841134601798        0.01105130079818
N           -5.25405053529036       -0.49517843800640        0.04029282431653
C           -3.46112492585185        1.18378848917972        0.00294617536023
C           -2.06815591468088        1.18245843098429        0.00651659404778
C           -1.35867258483354        2.37944941820867        0.00522456388876
C           -0.01692452169099        2.72377505467047        0.00386860446818
C            1.17311133528361        2.00530212522007       -0.00015359232245
C            1.50516104818136        0.65934927794449        0.00012189677183
H            3.88314699616602       -1.69774314659790       -0.01101443429510
H           -2.88711488167757       -2.07769599664278        0.03152337358183
H           -5.96905151759064        0.19902218384004       -0.08251174676809
H           -5.50377739022131       -1.46297440920201       -0.05613390203871
H           -4.07735824725864        2.06581991757829       -0.00538223478323
H           -2.01883994689143        3.24275218822727        0.00532578073862
H            0.14425008825688        3.79627541310070        0.00403993186392
H            2.05326581595078        2.64391981139480       -0.00521427110693
