34
 energy: -57.771992582259 gnorm: 0.000787359155 xtb: 6.6.1 (8d0f1dd)
N            1.65016667218043       -4.84252687996654        0.19505648077827
C            1.44672400196946       -3.71321055535357        0.13183852670687
C            1.17716978444235       -2.32547660000339        0.05708579216371
C            2.32433093795572       -1.54358545768119       -0.10262000870721
C            2.57428348056311       -0.19236974999470       -0.21009163049300
C            3.90125381443411        0.22178160870718       -0.53775914993409
C            3.96562206710057        1.58480948447219       -0.57236426609311
C            2.69546010412224        2.09152691430141       -0.21438847136554
N            2.43524545078065        3.44528679322163       -0.15877986742142
C            1.80570220340252        1.01630570991006        0.02043165286210
C            0.48140662305615        1.23785980744718        0.48377102512087
N            0.30946454850393        2.42270561505145        1.15887855128905
C           -0.70602684122541        0.51947532801988        0.22741598778535
C           -1.96435920750682        1.16594850681643        0.21664466850696
N           -2.25491812290782        2.50023037891614        0.37768079776149
C           -2.98202524728191        0.21833281034240       -0.04725839657645
C           -4.33153034515844        0.51545036813165       -0.20745976874844
N           -5.44190254652170        0.78236525786475       -0.35821497919580
C           -2.38518468659003       -1.04339124232821       -0.16649035357906
N           -3.08243015895838       -2.18318659338128       -0.37544250879145
C           -0.96675445531223       -0.90119847744145       -0.01254016357481
C           -0.19165105777452       -2.04082833668276        0.03323102080082
H            3.22217796222697       -2.14658935177711       -0.21538285955337
H            4.70807392376703       -0.45830287494649       -0.74033303556555
H            4.81740684094434        2.19194969704961       -0.81902923722862
H            3.12110739563698        4.00737429685303       -0.64214023628856
H            1.48342089448570        3.72562829152788       -0.34574295705880
H           -0.51606168321111        2.49580771842590        1.73267542968918
H            1.14378019175216        2.83621084495884        1.54473829834579
H           -1.55406790911567        3.15827905162749        0.07114351154170
H           -3.19633567511419        2.74442092289971        0.10138196776242
H           -4.06484448821382       -2.10603551205751       -0.57481639286814
H           -2.61534533920123       -3.03027780998446       -0.64721837778687
H           -0.77954921033379       -2.95564247903989        0.02162368001330
