31
 energy: -49.812159225987 gnorm: 0.000576237128 xtb: 6.6.1 (8d0f1dd)
N           -1.06116296508302        4.36838164774338       -0.14379056857636
C           -0.83348213989440        3.24127528975604       -0.11061158768966
C           -0.55129802383330        1.85634030372280       -0.06281678370821
C           -1.70604156230447        1.07461690650589       -0.04867863522509
C           -1.97982791802602       -0.27830075379806        0.00183947233607
C           -3.33897769136831       -0.74212174586336        0.04172586333274
N           -4.46338411894512        0.02122672424522        0.01313931388679
C           -3.34437131471716       -2.14157560876146        0.06060660610796
C           -2.03345475366010       -2.57097157547212        0.03591271687024
C           -1.14766500648354       -1.46896566331370        0.00584126254687
C            0.22064447034095       -1.71069246579741       -0.01941505786090
C            1.37483731573989       -0.95282452468718       -0.01919384982110
C            2.65624737351483       -1.58451081305915       -0.03034348383275
N            2.90627368634715       -2.92115311127551       -0.03485334018100
C            3.66239254726975       -0.61598426554183        0.03490546618227
C            3.06964549268472        0.63555304526909        0.07271187322938
N            3.75878279978664        1.80597125692715        0.09252670525789
C            1.63353800728597        0.48767104016822        0.01887099110214
C            0.83374477958855        1.59867034190158       -0.01538097998392
H           -2.59843189842527        1.69681008463025       -0.08324779343154
H           -4.40255527011395        1.00286237738690        0.22335235632314
H           -5.33338356455335       -0.42991029117630        0.23815422676228
H           -4.22308453576527       -2.75979439035536        0.09122021279618
H           -1.71919944335752       -3.60056623313640        0.04586686786691
H            0.41853804364825       -2.78003535931729       -0.01900464462187
H            3.84682947621270       -3.20936581996964       -0.24462880785150
H            2.17694711698821       -3.55034369596579       -0.32453910109325
H            4.71896383797346       -0.81341807094457        0.05278599556137
H            3.28352558817792        2.65417517329558        0.34942075919303
H            4.73782658069204        1.76007705705291        0.31707525688363
H            1.39051111877981        2.53365541203041       -0.01618920716154
