27
 energy: -46.941574544700 gnorm: 0.000399605577 xtb: 6.6.1 (8d0f1dd)
N           -5.47554142538452        1.05192254811949       -0.13178715930020
C           -4.34164619491279        0.86092756364094       -0.12119291649548
C           -2.97452942972390        0.57788863782081       -0.08826949347768
C           -1.91863928362028        1.45633403502573       -0.29845319843167
C           -0.69067719394263        0.77443080421822       -0.16935697807453
C            0.49711785579921        1.48944461335302       -0.12677528961540
C            1.82727745677133        1.13582559847976        0.05322629157552
C            2.85416020481865        2.10564374965680        0.23130056760814
N            4.05513621443198        1.56885321951001        0.32168563811062
C            3.89046533973942        0.24167259012269        0.14845283469283
C            2.55483042230542       -0.11133285766240       -0.00918181303762
C            2.07333565536517       -1.40788051933308       -0.36479490199310
N            2.86515398089660       -2.15887552387051       -1.15533294481616
N            1.00342292461117       -1.99793442985725        0.09187119775991
C           -0.19967498081363       -1.69768822779868        0.46407019499703
C           -1.01970825745403       -0.61773562279430        0.14816111801550
C           -2.43176081767648       -0.70070155584617        0.21869771507009
N           -3.18306795229315       -1.80625619259101        0.42467877257895
H           -2.02114779674126        2.50589987422951       -0.50625989383194
H            0.35285472811704        2.56302898555164       -0.21420488508552
H            2.71507969825660        3.16880555187405        0.31146799617395
H            4.74213836413145       -0.41498054261366        0.19798761066264
H            2.60492466066311       -3.10780836873066       -1.36262052274758
H            3.76795794077524       -1.81516098564781       -1.42923595187581
H           -0.66603011852711       -2.50815651272264        1.02663646109358
H           -4.17488870443776       -1.68700458947936        0.54680973206325
H           -2.76234222935436       -2.63598353785519        0.80498876797950
