25
 energy: -49.064611937952 gnorm: 0.000400391275 xtb: 6.6.1 (8d0f1dd)
N           -3.18039675232798        3.57604670619463       -0.00041788036518
C           -2.87760731734022        2.46868012127579        0.00074545814154
C           -2.48155627066958        1.12470504671742        0.00046825313752
C           -3.33835579345465        0.02782146612842        0.00029070929322
C           -2.56204126858054       -1.13622769407843        0.00061414939661
C           -3.06710020499108       -2.44464109014368        0.00142521122898
N           -3.50596767298912       -3.50415579973309        0.00095642623473
C           -1.18044723995802       -0.79687361793316        0.00103438086526
N           -0.31697624459953       -1.78323226078658        0.00298689094107
C            0.97096608573085       -1.92375508993251        0.00319557646989
C            2.08196484848072       -1.04309254041798       -0.00145115074580
C            3.32480881325535       -1.74129848024561       -0.00242500668262
N            4.28441754811241       -2.36579468534512       -0.00268284954844
C            2.22840056032910        0.33851914330302       -0.00458315164844
N            3.50196354876940        0.80422631812412       -0.00781692451757
C            3.45285330870872        2.12278831719409       -0.00869186869279
C            2.13172005476155        2.60052719694820       -0.00643727366894
C            1.29530980167020        1.48203174967122       -0.00379505378085
C           -0.09509416977799        1.59927497064315       -0.00165228362937
C           -1.12105211780806        0.68341444265175        0.00040269732543
H           -4.41245629259703        0.06675535748725        0.00028770830141
H            1.25802874820907       -2.97507446889190        0.00693549925995
H            4.35798516971489        2.70197322753712       -0.01090692360229
H            1.82159162930276        3.62754834523869       -0.00672029246942
H           -0.43142923485125        2.63404356009320       -0.00251986474388
