25
 energy: -48.275371878910 gnorm: 0.000621508931 xtb: 6.6.1 (8d0f1dd)
N            4.15308546768328        1.94124361740020       -1.72427492320800
C            3.45436773777031        1.20415343822653       -1.18697492493652
C            2.59472131557069        0.30676864943529       -0.54928835849928
C            2.83617454919376       -1.05327907935748       -0.32290305357289
C            1.74341074380985       -1.64741828715421        0.31631508227252
C            1.63589473884782       -2.99125890783529        0.68089655958011
N            1.55389705633019       -4.09768538347368        0.97911508209693
C            0.71206349783961       -0.67498084286335        0.45099031243686
N           -0.53664596313224       -0.97395998630185        0.56148514149191
C           -1.65599525260316       -0.30491988760268        0.39377675995578
C           -2.82838724650533       -0.96167132611217        0.07831990800506
C           -3.81600601856859       -0.01282002277297       -0.30737945621288
N           -5.06009097230498       -0.32550490471692       -0.69636026212504
C           -3.27112439226627        1.27267150370016       -0.22672720735513
C           -1.96803056471785        1.19063138399675        0.26725436196070
N           -1.28190900106804        2.21535471434833        0.66838758246207
C           -0.03190335022449        2.35609683666927        1.01839444744157
N            1.02708818108920        1.81813296169040        0.47468642740821
C            1.35787829347421        0.64765809469593        0.06118734762814
H            3.73610495693699       -1.56996765259777       -0.60697796811870
H           -2.95166211785382       -2.02792992265122        0.07603607138908
H           -5.36855110266108       -1.28149149012604       -0.69406144238118
H           -5.70571138511782        0.39501220761846       -0.96675785585458
H           -3.78137801766982        2.19078575220798       -0.44564386609716
H            0.17245237274910        3.17776120797484        1.69932885153491
