35
 energy: -56.682666637771 gnorm: 0.000930997215 xtb: 6.6.1 (8d0f1dd)
N           -5.44012189069750        0.42821814963347        0.90839621621093
C           -4.35960711351796        0.15453194278158        0.61679618764944
C           -3.04300079094034       -0.12548202135718        0.26407366673347
C           -2.39710129054707       -1.36776341257842        0.30803149310434
C           -1.05838930526148       -1.20263163396284       -0.05260487629587
C           -0.21507285897184       -2.32034005400718       -0.32578277168273
N           -0.89368940606482       -3.47669507374422       -0.58477632446482
C            1.16340813107925       -2.44446522054988       -0.33609964899019
C            2.24679704866685       -1.65475795542554        0.06812388784032
N            3.41682252760248       -2.35843922141463        0.14372429637870
C            2.35573225036180       -0.27292001304832        0.34021397185689
C            3.51120884243428        0.27784272383242        0.93652908273611
C            3.48007084300241        1.65327321400500        0.83670405907500
C            2.33115658160865        2.01644726122459        0.13271094363180
N            1.99690576898892        3.34387606309506       -0.15359092935206
C            1.57935961988990        0.84686466382230       -0.15469023649205
C            0.29083110826416        0.93838698129482       -0.72525184912748
N            0.06276301159024        2.01016263598972       -1.52053317680551
C           -0.86326676670102        0.19545303950081       -0.35961759738175
C           -2.11451152310635        0.82913620292068       -0.19669774319363
N           -2.43533413429473        2.17343759261185       -0.39870686391072
H           -2.87054983867403       -2.27523260307883        0.63706525764227
H           -1.88115075231655       -3.44451911296854       -0.75885857932179
H           -0.39378635622760       -4.31769017020017       -0.81054341804315
H            1.47916489786679       -3.45174700155340       -0.60280696815997
H            3.39396344673879       -3.36194164550807        0.18313788983476
H            4.25120900228473       -1.89495775077773        0.45130446113805
H            4.28451567530362       -0.26068934698441        1.45629967039087
H            4.20910778968253        2.33925132147876        1.22972389462971
H            1.01457093271536        3.55939700906432       -0.03874368490426
H            2.57116928614989        3.98681025193636        0.37662734881667
H            0.84689851442660        2.53448435561230       -1.86956439952062
H           -0.83643153876760        2.10566105986489       -1.96166488333673
H           -3.33770208253060        2.40100219791695        0.00160175699631
H           -1.72401765213873        2.82370963597313       -0.09042079528272
