31
 energy: -55.419772475005 gnorm: 0.000407479235 xtb: 6.6.1 (8d0f1dd)
N            0.00014514675573        5.16381941408612       -0.00437367394457
C            0.00021785337715        4.01650972684674       -0.00346456529871
C            0.00013942567974        2.59557314467857       -0.00233493135436
C            1.28389433646021        2.05734061242946       -0.12541764328476
C            1.82806576800076        0.78555952627040       -0.09332762934843
C            3.23282717742083        0.65654816551885       -0.15854463738559
C            3.59523757728199       -0.67790681949472       -0.04129910448293
C            4.88083467011648       -1.22508061554038       -0.02681225474493
N            5.91505693714596       -1.72603143672140       -0.00129639190541
C            2.40573448280856       -1.44403915698417        0.09340455448952
N            2.41089552217724       -2.78807541058103        0.22436775307500
C            1.28330705537950       -0.56675000174349        0.03167289094563
C           -0.00005829157455       -1.08616397975659        0.00060771656190
C           -1.28338385491391       -0.56665908490829       -0.03128727408669
C           -2.40589642228837       -1.44392745161741       -0.09157454757619
N           -2.41121050821819       -2.78818970128223       -0.22034783616864
C           -3.59531684587204       -0.67745693110040        0.04186303440351
C           -4.88097419002158       -1.22450745280786        0.02824993352143
N           -5.91525338264743       -1.72540015473967        0.00361303160929
C           -3.23275618471175        0.65716107506560        0.15693380963987
C           -1.82798583009843        0.78589856896375        0.09154795802313
C           -1.28365508138489        2.05768861647046        0.12159711916755
H            2.04344158710168        2.82816369754133       -0.23317180371512
H            3.92110621728586        1.47509722441173       -0.26496397168627
H            1.59548838195624       -3.27656053218596        0.55096297822758
H            3.30059041929767       -3.24143372606699        0.35386059819577
H           -0.00013667024791       -2.17330086554241        0.00152321923545
H           -3.30096745907511       -3.24162554290402       -0.34912197068314
H           -1.59589412443561       -3.27726158305837       -0.54619612698539
H           -3.92095535210609        1.47595309265808        0.26199809480660
H           -2.04313632634966        2.82875366309343        0.22808840564952
