28
 energy: -57.822978895615 gnorm: 0.000869090572 xtb: 6.6.1 (8d0f1dd)
N            4.55047287129309        3.36899595356528        0.00117985033309
C            3.98215030326497        2.37215536936028       -0.00023267794094
C            3.27140480891110        1.16342587233202       -0.00013310858148
C            3.85026769932360       -0.11099162873407       -0.00064553674052
C            2.82675930396439       -1.05644904346290       -0.00070022688636
C            3.00351479009485       -2.44779035530731       -0.00095581371224
N            3.17963974144623       -3.58055513319219       -0.00241020986101
C            1.56174101875728       -0.38841804577687       -0.00029784674023
N            0.48164482958801       -1.11268402368605       -0.00018189604287
C           -0.80129467173754       -0.91181448546623        0.00017463383471
C           -1.64016489672885       -2.07401169765427        0.00051193250938
C           -1.17403971326588       -3.39726095717416        0.00107964526429
N           -0.82130086378928       -4.48790865633240       -0.00083984042915
C           -2.97029050518896       -1.68266181417944        0.00084077931108
C           -3.02326326260636       -0.27724705503678        0.00085426290787
C           -4.26532138790565        0.37879700157730        0.00165906831091
N           -5.33628949096791        0.79033767138179        0.00169790000958
C           -1.71037463936944        0.26053805226547        0.00044793403470
C           -1.46073707186857        1.63853471590552        0.00039261445382
C           -2.60777367546195        2.49106316873119        0.00023681683586
N           -3.44230565964477        3.27500541294690       -0.00009518160103
C           -0.30559319565083        2.43301310876581        0.00051699373014
C            1.06057902048002        2.19433488296330        0.00052388135201
C            1.85289687109438        1.05668781005749        0.00013095910661
H            4.90420190866677       -0.32102601656275       -0.00096252580202
H           -3.82615331927246       -2.33254505966458        0.00122870313010
H           -0.54377517669508        3.49204867236992        0.00063031443030
H            1.64742008366887        3.10909678690775        0.00078691438341
