36
 energy: -61.212825807487 gnorm: 0.000907971110 xtb: 6.6.1 (8d0f1dd)
N           -5.49368026204544       -1.79616634402843        1.11502992697111
C           -4.54979392064212       -1.22192705510022        0.79138353570928
C           -3.38550052149966       -0.57095504647940        0.38967086126010
C           -3.06898174832599        0.77995490087699        0.55813913010784
C           -1.77563643130870        1.01740686355633        0.07949435191067
C           -1.28512598333166        2.34136797994465       -0.10360084588915
N           -2.25172493212096        3.29870951459514       -0.14228235800211
C            0.00598236021019        2.83373815620098       -0.26885793638501
C            1.29548067857924        2.33564868992003       -0.10824953122775
N            2.26618812772922        3.28867364429064       -0.15051271702871
C            1.78075791460746        1.00953502542327        0.07317445396379
C            3.07474750133212        0.76636976349309        0.54719623094236
C            3.38471242693277       -0.58589119699151        0.37755130584931
C            4.54782245856345       -1.24181846407125        0.77459331581601
N            5.49003812551240       -1.82046494367841        1.09573533653942
C            2.29437357468485       -1.20517696403565       -0.26712172731730
N            2.28631316816850       -2.55275321433112       -0.61603687928851
C            1.26641829705753       -0.24789319285159       -0.42778130649594
C           -0.00285617984392       -0.62715596871424       -0.93255504502986
N           -0.00667229300370       -1.64958180004707       -1.81521532870228
C           -1.26864865561701       -0.24227425435468       -0.42331085296906
C           -2.30025598070541       -1.19499600093758       -0.25900810700676
N           -2.29940591632327       -2.54258319778945       -0.60793684923381
H           -3.72014341544218        1.48173445526427        1.04779922532386
H           -3.21957317539749        3.04210461021131       -0.09574840077785
H           -2.01013637291761        4.27277481197545       -0.16182074488963
H            0.00801853055371        3.90564924321895       -0.45728342349726
H            2.02886876687848        4.26380544703097       -0.16929498934951
H            3.23303552241634        3.02776248021441       -0.10757457427034
H            3.73076186900092        1.46528162146378        1.03446469216525
H            3.06359836444417       -3.05132063521378       -0.19964844122236
H            1.41032769054478       -3.03164918954952       -0.45448486223006
H            0.86188561669437       -1.94894345315448       -2.22513562815123
H           -0.87799318200873       -1.94512505786741       -2.22205007801523
H           -3.07738808404703       -3.03772390753962       -0.18876021017123
H           -1.42497265492304       -3.02533821074649       -0.44954256750789
