36
 energy: -61.214259533400 gnorm: 0.000966306393 xtb: 6.6.1 (8d0f1dd)
N           -5.66026499374429        1.62319767449899       -1.20758562205359
C           -4.71146960078324        1.09060964057073       -0.82964723455838
C           -3.53913058277603        0.49061735228341       -0.37877585872900
C           -3.26750979150134       -0.87464792503527       -0.27742802395968
C           -1.93918425660032       -1.05459321907674        0.13370851607654
C           -1.43849040253511       -2.35453200794924        0.42699535544792
N           -2.38168118126095       -3.26169386961498        0.80050292878645
C           -0.14838037606059       -2.86827142534404        0.29418640894112
C            1.07043747931703       -2.32533451840839       -0.06161618385245
C            1.61984460071552       -1.05277794463657       -0.11468772631148
C            2.98920565488871       -0.90547575928401       -0.47756153463016
N            3.82030482084491       -1.86102326217855       -0.97642734949193
C            3.40064729234949        0.40477886259784       -0.18270592433089
C            4.65258910895910        0.95178855104737       -0.44353865058940
N            5.67931432746855        1.41911302278747       -0.67761903415998
C            2.30267879437529        1.10063179413630        0.37041550320444
N            2.39249955470709        2.42506202409900        0.73976021804380
C            1.17524310450224        0.24305747386649        0.39838036950365
C           -0.09284242528606        0.69407538128123        0.79528444809247
N           -0.12464036189196        1.83090881359558        1.55464694159883
C           -1.37018751156024        0.25657035997963        0.33238069113087
C           -2.38757391676449        1.19139064474287        0.04747428307237
N           -2.33327905774304        2.57593855179324        0.12323099994305
H           -3.96595157558170       -1.64195432799650       -0.56091318817399
H           -3.34828127150811       -2.99137003390509        0.82559891069777
H           -2.15927553752366       -4.24183204480717        0.81794823725103
H           -0.11594326377323       -3.94694557434646        0.41951910844002
H            1.80131587679453       -3.09598549114960       -0.29004635027543
H            3.42284420352634       -2.65248749005070       -1.45189221256795
H            4.71941700703717       -1.54967178440460       -1.30591680015292
H            3.24900266738652        2.86534473467123        0.42924156063606
H            1.57179264510913        2.99106882053711        0.57730800366208
H            0.68358038471865        2.03420014426436        2.11836577891726
H           -1.02054926689166        2.10050243908596        1.92888306381125
H           -3.08551468322608        3.02231669903082       -0.38527244144144
H           -1.43245119378741        2.98566165861769       -0.08013290217723
