36
 energy: -61.213153032544 gnorm: 0.000863499432 xtb: 6.6.1 (8d0f1dd)
N            5.78442232359821        1.58177252895221        0.65662204503091
C            4.68109816181722        1.34914427251236        0.42242427957820
C            3.35472873033490        1.01455622094480        0.16066927533318
C            2.26667388378329        1.86731239126497        0.03364121516841
C            1.09346813681816        1.10709532490171       -0.14706346620848
C           -0.12234032178348        1.77152408639238       -0.29670688891831
C           -1.44956201284703        1.41263167979112       -0.22852136054751
C           -2.47001666145401        2.41503081373490       -0.35224806372590
N           -2.27806858831412        3.71036347072998       -0.72772878866047
C           -3.69148276341490        1.87332365224409        0.02212080955342
C           -3.49593590649771        0.54440418787521        0.39305210077655
N           -4.52693176390654       -0.28721531269626        0.78059768797265
C           -2.11873087572683        0.19926140167105        0.22783056406095
C           -1.63688239020132       -1.08593676979640        0.46807699962679
N           -2.40313945197352       -1.89552310823709        1.25731697448032
C           -0.56374954418772       -1.78462545120742       -0.19688945418365
C           -0.92090592552231       -3.11811808103996       -0.46295860331215
N           -1.22200333641334       -4.20804303320977       -0.69292788317679
C            0.74542169449915       -1.44697464879449       -0.55195272726705
N            1.46971967442208       -2.41940198623286       -1.17856692392686
C            1.49112840432870       -0.28434016804825       -0.20177839792996
C            2.88417959811144       -0.31755113060682       -0.01354525527225
N            3.72685036631405       -1.41129309066709        0.00984878858441
H            2.30619274548315        2.93945032512826        0.10015587581482
H            0.02694222780064        2.83987899420816       -0.42643249928622
H           -3.10091248378436        4.25125638675166       -0.93233934468782
H           -1.45659315368166        3.93894883304049       -1.26099342060425
H           -4.63805030619420        2.38290293402445        0.01243480035754
H           -4.44823627235245       -1.24785988981762        0.47506706213309
H           -5.43929110472555        0.10729161890605        0.59714491823361
H           -3.04032564389390       -1.46851311838171        1.90724903484255
H           -2.07935337493387       -2.82713342563997        1.45721495970254
H            0.99844666163749       -3.24416601001604       -1.51177366838167
H            2.34009477351938       -2.16311400695255       -1.61103691930936
H            3.31715419381227       -2.27776255758641        0.32814892905426
H            4.62987669173075       -1.21541963424319        0.41951815299451
