31
 energy: -53.837420138281 gnorm: 0.000903390694 xtb: 6.6.1 (8d0f1dd)
N           -5.80853330828022        0.56438974795185        0.83420626944477
C           -4.70059814482281        0.43178753321617        0.55439790817486
C           -3.35829548526185        0.27097547260273        0.20616746836827
C           -2.75497148554640       -0.92731730008213       -0.22098496576125
C           -1.39904169182939       -0.69125053435479       -0.40773902368608
C           -0.48708260999453       -1.71908639955941       -0.83043793977092
N           -0.91168097119076       -2.55672546082644       -1.79648595425701
N            0.63370837354212       -2.00903437448631       -0.24918403540676
C            1.52366403895008       -1.36537140891418        0.46966633102672
N            2.18572799771209       -2.13070681755772        1.37729814794925
C            2.02286953319946       -0.07158806352984        0.20527423572856
C            3.38354292775014        0.27858547277281        0.31878036065341
N            4.42883783326425       -0.49917961156472        0.76691780086944
N            3.61507457432791        1.53992615482540       -0.08672980512437
C            2.44090568644253        2.04317533674099       -0.43796369098882
C            1.37479379126835        1.12519759771731       -0.30552791188301
C            0.01743793315033        1.49174139111455       -0.39856142689384
N           -0.24865537835829        2.77417442866500       -0.72810049108569
C           -1.14407680952989        0.69887064666988       -0.15054554263847
C           -2.38148146000790        1.26679256318837        0.20924622525812
H           -3.25559578810495       -1.87506995837626       -0.31150853807308
H           -0.36775145722539       -3.37094970341325       -2.02465949202031
H           -1.84487753775030       -2.46366802576807       -2.15627217959443
H            2.76257723054413       -1.66953284671380        2.05924840439297
H            1.78333626354993       -3.02243906810032        1.61281538866752
H            4.36116729684303       -1.48296829265652        0.54456944135943
H            5.32195182241470       -0.09164613346163        0.52543667087987
H            2.40885974051557        3.06319510626531       -0.77926462148419
H           -1.20393923557406        3.07890942086152       -0.78336707179758
H            0.48507373298936        3.45661233240000       -0.77796377884503
H           -2.55915287118765        2.28120973157417        0.52140686163657
