36
 energy: -61.211483368845 gnorm: 0.000969848177 xtb: 6.6.1 (8d0f1dd)
N            1.63170039147807        4.73323233800747        0.37227463429867
C            1.34915089807766        3.62170835876393        0.28507135044957
C            1.00355242252635        2.25585722712984        0.16873753265320
C            2.11541911348062        1.42757960741103       -0.04092954085546
C            2.32025225736941        0.07491834014823       -0.16848613093056
C            3.64384867777193       -0.40414494864716       -0.49866245022518
N            4.72561115528787        0.36449063606084       -0.79454544816674
C            3.65581871157984       -1.78357630031546       -0.42974699274383
C            2.38584647761414       -2.21892548164324       -0.03531065831808
N            2.08214467726640       -3.55323130193647        0.10121541648840
C            1.51546841612807       -1.10171192097711        0.12315869154198
C            0.17899585638682       -1.26250530301170        0.53352937259197
N           -0.08514552046768       -2.44491912107625        1.20658083347739
C           -0.97845652560882       -0.49863765194232        0.22781610617238
C           -2.24472185508097       -1.11115470772160        0.12089335824962
N           -2.57302154467832       -2.44336951451848        0.20008676772776
C           -3.23119247846105       -0.12462115840564       -0.13907421178872
C           -4.57646070475633       -0.37803326383424       -0.37697492644242
N           -5.68571092594873       -0.60400265714636       -0.59428275912516
C           -2.59928519305220        1.12356694395688       -0.15491620057056
N           -3.25760519272163        2.29608261118828       -0.31559433577437
C           -1.19175495764038        0.93150065201349        0.04615827583226
C           -0.37507472056594        2.03969103053537        0.14520276912038
H            3.02383243725664        2.01581774600468       -0.14517608549978
H            5.53263689886358       -0.10393918738223       -1.16896553510900
H            4.58966963938810        1.31695131177567       -1.08623134599548
H            4.48976815078050       -2.42495493359901       -0.64957629056607
H            1.12139772210055       -3.81358604894773       -0.06651891335047
H            2.75540343822067       -4.17160358141119       -0.32731499486739
H            0.70114666642030       -2.83703285895014        1.70134583407525
H           -0.94653508170233       -2.45350434177510        1.73123804101612
H           -1.85444054753498       -3.10343200575891       -0.05639189664234
H           -3.48987306974858       -2.66238348562214       -0.16401741821404
H           -4.22556109135477        2.25725228234933       -0.58566348052535
H           -2.75216150548979        3.13922782905291       -0.52259117357786
H           -0.92279247828666        2.97877823672416        0.17025027429564
