28
 energy: -51.444520610567 gnorm: 0.000857047977 xtb: 6.6.1 (8d0f1dd)
N           -4.63081829449363       -1.61213144803619       -1.14909940535299
C           -3.81709570462982       -0.86810665028640       -0.82021016788823
C           -2.80366308106578        0.00095233907482       -0.41636640324427
C           -2.94059356987915        1.35145685142333       -0.12716879746401
C           -1.69244957005566        1.86728203098992        0.24935384289516
C           -1.43535515084255        3.19745844163163        0.59041741094638
N           -1.24626359974852        4.29547142746052        0.87245420114664
C           -0.71304487282726        0.83813066188940        0.18655242411648
N            0.54669350948070        1.14765331433566        0.31760721026435
C            1.66857225882228        0.49331364767357        0.19023362481225
C            2.87025987218661        1.19210366585870        0.08530505672265
C            3.90586460852942        0.29476568861927       -0.23153958894073
N            5.19416184751531        0.62513657605096       -0.42604146051674
C            3.37564362954470       -1.00932397674362       -0.29452398907082
C            2.01769316971170       -0.97332896745596       -0.00274965836887
N            1.33186510252298       -2.07803425403830        0.14827446398133
C            0.07785847205598       -2.41132528457892        0.27951107253485
N           -0.10365250823149       -3.68174135496080        0.73184190977808
C           -1.12136605060708       -1.73015869996078       -0.09924566988631
C           -1.44549259656989       -0.40661704031583       -0.17018782586024
H           -3.85402737279421        1.91583907273509       -0.18750490927839
H            2.96347989988427        2.25546194863762        0.19312608385634
H            5.48545940973312        1.58382077048732       -0.36294865633484
H            5.86479909896319       -0.07338974826131       -0.69077411770415
H            3.93521309938493       -1.90248044721507       -0.49904742822365
H            0.70961178697880       -4.23619558538147        0.93106532725412
H           -1.01518522133911       -4.09881905936782        0.77124077490761
H           -1.94754515892633       -2.40626677167316       -0.30281816858728
