27
 energy: -57.315095980837 gnorm: 0.000807620876 xtb: 6.6.1 (8d0f1dd)
N           -4.70652577301822        2.52612720392112       -1.40335529843491
C           -4.05028723561874        1.68155706309164       -0.98734789906604
C           -3.24304182084234        0.64985913267887       -0.49470124344719
C           -3.57221777564052       -0.69679846774218       -0.41667920704976
C           -2.49484655381610       -1.43595544956789        0.11724152581283
C           -2.48728592444702       -2.82263984975829        0.30881122144630
N           -2.50601994040490       -3.95886330678247        0.46780494772064
C           -1.41686703969126       -0.56435378276612        0.37427130865283
N           -0.19142898965769       -0.97690358173352        0.49876246619548
C            0.97911492722269       -0.41096337934495        0.42521059738023
C            2.14545349729181       -1.16026806216415        0.19215018207267
C            2.29023966380108       -2.54735142934745        0.27440650946970
N            2.48543655230372       -3.67791373027330        0.32687204385630
C            3.19564297609643       -0.28657855943227       -0.22150907442203
N            4.42417278483843       -0.67026668017708       -0.56356177029447
C            2.70942234918690        1.04261186337740       -0.21336742730642
C            3.46442707301909        2.15996981085951       -0.58110328350245
N            4.12236255250242        3.04519841309277       -0.90033043531651
C            1.39409138038937        1.04871554234822        0.29307028439245
N            0.79677464978612        2.09230027061931        0.76538984561838
C           -0.41996962328420        2.33333597166150        1.15765734268576
N           -1.52926872120761        1.94951903217135        0.57579864507568
C           -1.96594376051125        0.83758510061145        0.12203656387577
H           -4.50840872892897       -1.12425437535641       -0.72974159029586
H            4.68428787524083       -1.64183319042094       -0.51217330953199
H            5.10089937417748        0.00919626910145       -0.87090802039399
H           -0.53206703148529        3.09973650023482        1.91830307940456
