32
 energy: -53.553317839786 gnorm: 0.000399240591 xtb: 6.6.1 (8d0f1dd)
N            5.47757922754711        0.00912674026293       -0.38310515056471
C            4.34287635963473        0.09427588690653       -0.20539664859742
C            2.96423593566631        0.15164843793256       -0.01700801635192
C            2.20819106376587        1.26997084296682        0.37050966140929
C            0.86251224328695        0.92411215515909        0.35864709951446
C           -0.15800886840870        1.89650430845090        0.58211946321379
N            0.08355677925909        2.86157435579389        1.49430367627371
N           -1.21783738590070        2.05635962987604       -0.16082114112463
C           -2.05469768911898        1.26656096729165       -0.77444569172004
N           -2.69994209647181        1.78526163513440       -1.84038831020436
C           -2.48840828689446        0.00016350809749       -0.28306519714065
C           -3.84004706660432       -0.34757241135588       -0.22428222571174
C           -3.95783757245449       -1.58470614267136        0.40746437216390
C           -2.68944918860345       -2.04852426183240        0.68800979896515
C           -1.72901911134552       -1.08772212430284        0.27833805246447
C           -0.34102699980277       -1.36854661509331        0.20961187407856
N           -0.00603553057816       -2.67713411421178        0.31922696220192
C            0.75357402549917       -0.48237489278485        0.02324902202113
C            2.08104306089931       -0.92391470417497       -0.21625022475488
N            2.50549941068346       -2.20663092550370       -0.56581626375580
H            2.61649975895851        2.24864494233074        0.54960425893262
H           -0.53154483993640        3.65498939885178        1.54526323627273
H            0.97219094423531        2.89173022578155        1.96054714703993
H           -2.54719558316462        2.74726115704854       -2.08952224983902
H           -3.49197444946546        1.29598605026276       -2.21670870517187
H           -4.66081787655374        0.27656460770352       -0.53373900916386
H           -4.87990827274253       -2.08855530218776        0.63452335015149
H           -2.49164861879500       -2.97852880496061        1.19353138350955
H           -0.73081678723920       -3.34353306912078        0.51616232035079
H            0.94825345936415       -2.92044656961940        0.53447649210996
H            1.94586321497111       -2.64418036061070       -1.28728314151378
H            3.49083790180832       -2.22117490291755       -0.80185946006047
