35
 energy: -62.304006132186 gnorm: 0.000536547077 xtb: 6.6.1 (8d0f1dd)
N           -6.08212934098206       -2.23589276294244        0.53255986665941
C           -5.02035550550350       -1.81198077989022        0.40320542546978
C           -3.75116021202949       -1.25505963232055        0.24809631451362
C           -2.55464879975381       -1.92224012981596       -0.02030882343662
C           -1.49462420482329       -1.00507572666773       -0.09105506098816
C           -0.19316966927292       -1.47914587215698       -0.23793193538482
C            1.07205426300570       -0.93738175950505       -0.19089949944493
C            2.19444148582632       -1.82862063952273       -0.10315171929373
N            2.18280217789744       -3.17861935149462       -0.12023255946657
C            3.35687174611523       -1.07468572310795        0.10872147725414
C            4.63683671994061       -1.57725427653790        0.32450042150937
N            5.69885677899957       -1.98579651175450        0.50086143126975
C            3.00712807073478        0.29471852307721        0.07854496663513
N            3.94053294145530        1.27723466421821        0.26954233719939
C            1.61267458068719        0.42491008637638       -0.15044789844016
C            1.03826213653574        1.67723289137460       -0.44578867431460
N            1.92273640454672        2.64714149103170       -0.83360717641822
C           -0.30005052230581        2.14978367451202       -0.30522396241742
C           -0.44695057702453        3.54433433056561       -0.49688481273605
N           -0.60751096327776        4.67405075633734       -0.64967631650353
C           -1.53500016793985        1.58772759936069        0.01546583516769
C           -2.06133063412339        0.31638843780285        0.11059872125800
C           -3.46304720481722        0.12728634092310        0.34091376768915
N           -4.39008198283477        1.06169306715254        0.62437611582667
H           -2.46417021961782       -2.98743797695267       -0.13858548587080
H           -0.19024912182039       -2.56219544358754       -0.32047388781944
H            3.06554301352429       -3.66003495933933       -0.11598876616682
H            1.37329053197926       -3.68609061061926       -0.42931185786077
H            4.81992202692608        0.95002529658317        0.64436892813726
H            3.61568523468619        2.15093088366447        0.65645375792797
H            2.79765891026580        2.36489941299906       -1.24203993692996
H            1.55304093507272        3.54090512310726       -1.11707220744042
H           -2.28443301408634        2.36631464642064        0.14785656111689
H           -4.17383412440554        2.04212831480121        0.60044275919947
H           -5.35570529757179        0.78618333970003        0.67506111490044
