28
 energy: -46.652105058659 gnorm: 0.000665968109 xtb: 6.6.1 (8d0f1dd)
N           -0.31208497112471        4.20715944650524        0.07686394704946
C           -0.31389907037119        3.05691347990213        0.03815807082844
C           -0.28402179764183        1.64319965616818        0.01052390128458
C            1.02666079191138        1.17789298158143        0.17136513153216
C            1.65888065048692       -0.03165366509189        0.03498075371134
C            3.09064820685322       -0.15082101833367        0.07986523205201
N            3.99725424746025        0.82169912432932        0.28464122260007
N            3.50630812367753       -1.40341613094289       -0.17149423494016
C            2.41103954043340       -2.13013004329788       -0.36165774487867
C            1.21438932616907       -1.39347654333602       -0.24573021191514
C           -0.01777415233510       -2.01580354928334       -0.27311351067659
C           -1.32057151972913       -1.59179537799117       -0.05608761774709
C           -2.32813658777221       -2.57643082383664        0.12825624814792
C           -3.52768435711311       -1.96277924238928        0.40767766809104
C           -3.32897468718837       -0.58331619909447        0.33585183872981
C           -1.98089024320208       -0.30376933364764        0.05069316059759
C           -1.55561224011391        1.03563371198046       -0.17114198861594
N           -2.53534855409237        1.89262133563359       -0.53615184948490
H            1.71037520133194        2.00166128242613        0.36959477815086
H            4.96084598734258        0.54374423727447        0.34332263002578
H            3.72902661466293        1.72733860182267        0.62339920345866
H            2.49192612828836       -3.18293074083118       -0.56612089611336
H            0.05917477496710       -3.09045891463093       -0.41745154835344
H           -2.14867173880394       -3.63554600070869        0.09116201473992
H           -4.45843535408308       -2.44745088795603        0.63826929638088
H           -4.09809695327933        0.13810682164534        0.55383369607743
H           -2.35448144467308        2.88185215702410       -0.59185196473660
H           -3.47539255206276        1.56153618277970       -0.65541448239708
