37
 energy: -65.740579260148 gnorm: 0.000642602883 xtb: 6.6.1 (8d0f1dd)
N            5.64783965921041        1.70730866673248        1.40495041408185
C            4.67759981328070        1.22680306592835        1.01492250538820
C            3.48719398592718        0.68593056979289        0.53082996490404
C            3.00924853389618       -0.61317222696405        0.72210707972205
C            1.73811582583747       -0.72611621326873        0.14397655725134
C            1.12198238335871       -1.98677634307055       -0.06886446568980
N            1.97819947564162       -3.03561980125388       -0.09288730177000
C           -0.24337679312993       -2.30861576964398       -0.22561831497896
C           -0.47439142545805       -3.65307681308242       -0.58424583675125
N           -0.66340409806416       -4.73893948390798       -0.92230321072778
C           -1.43399823542572       -1.60007162251273        0.11192968544830
N           -2.47488164067923       -2.40012558498352        0.46372241190474
C           -1.69315831843319       -0.21457725859773        0.09176767339270
C           -2.92933472345202        0.33289779500108        0.53480678760304
N           -3.88359845531988       -0.26340238796028        1.34016825941445
C           -3.07843578732567        1.61854830913303       -0.01593115934302
C           -4.15289406531530        2.47277770115898        0.23150863811910
N           -5.05126027273221        3.15309044581686        0.46326632307218
C           -1.95302402991174        1.88696855732640       -0.80363974186457
C           -1.05519901774144        0.81920485013083       -0.70624882794901
C            0.27757630300076        0.99510489760998       -1.15324078250608
N            0.48596430096977        1.86881239660162       -2.15657650788362
C            1.42963677760441        0.54852122496245       -0.46191644041239
C            2.54199606076040        1.39078716613361       -0.24660060136081
N            2.71127312745558        2.70177845738847       -0.66509472234253
H            3.52504318065708       -1.36546460914468        1.29133512200456
H            1.63969981423774       -3.98000564532832       -0.17090974919367
H            2.96773652043601       -2.87004504182841       -0.06310869649660
H           -2.36835758481638       -3.39755925531988        0.36675394883769
H           -3.41049854473369       -2.02619225569533        0.41376509315005
H           -3.52144739844789       -0.81461619711744        2.10639371677075
H           -4.60876166349229        0.37999717145490        1.63089974776787
H           -1.78489348962489        2.82935064250273       -1.29298409848733
H            1.42589769501065        2.07012581744964       -2.45259061861860
H           -0.28751890245568        2.27206167094646       -2.65474246942942
H            3.47065457158679        3.16665283186810       -0.18395125005863
H            1.86995971968549        3.26294216924110       -0.67897518236688
