29
 energy: -51.971259363693 gnorm: 0.000289375748 xtb: 6.6.1 (8d0f1dd)
N           -0.00019163651985       -5.02503331426496       -0.10186172841665
C           -0.00002205670801       -3.87898419687396       -0.08047728734122
C            0.00004458648366       -2.45680536007017       -0.03661038991203
C            1.28161179795487       -1.90623457116525       -0.08506144323669
C            1.80111505266922       -0.62373908044937       -0.04734427722215
C            3.18218386483472       -0.44803543613764       -0.31545045232670
C            3.51029281554934        0.88826788400882       -0.15892054067472
C            4.76334149344869        1.47944335243684       -0.37244709799212
N            5.78527991313599        1.97447182407534       -0.53884678806821
C            2.35451391571974        1.57269763353155        0.27634348972602
C            1.28179243200193        0.68397137243325        0.33851760985016
C            0.00020727053144        1.13159873125047        0.76506830526063
N            0.00020368531618        2.19938665733350        1.57527062775643
C           -1.28134678262023        0.68409499537232        0.33831362882372
C           -2.35393713863432        1.57296971873040        0.27599482695630
C           -3.50971128944538        0.88874546183152       -0.15955890972360
C           -4.76282109911455        1.47984917097805       -0.37291764381927
N           -5.78495125607041        1.97462515285162       -0.53894911484676
C           -3.18171421199504       -0.44755238194743       -0.31634389992674
C           -1.80075231675569       -0.62349797148906       -0.04786242962799
C           -1.28144379132617       -1.90606431696989       -0.08547226756909
H            2.05036993308616       -2.66089980163824       -0.23432237100169
H            3.85502834900675       -1.22996318887791       -0.61447023498028
H            2.32719206058294        2.63586873322483        0.43863781942420
H            0.86570719587016        2.61951652206807        1.86747570539072
H           -0.86530846618637        2.61949042393306        1.86750586445925
H           -2.32649168513887        2.63610587824707        0.43847107403669
H           -3.85459360622806       -1.22931541540103       -0.61572921683817
H           -2.05025520584735       -2.66060781312172       -0.23506169806003
