25
 energy: -49.063445674661 gnorm: 0.000668683780 xtb: 6.6.1 (8d0f1dd)
N           -4.22082392036281       -3.04018044879520        0.00184285566417
C           -3.62158912683261       -2.06112289522871        0.00080369409462
C           -2.87615601149969       -0.87444092664201        0.00052994747278
C           -3.41524193038118        0.41358246757873       -0.00018337027495
C           -2.36223248704165        1.32945713060831       -0.00035705996505
C           -2.48993649212215        2.72495585485171       -0.00061086055779
N           -2.61139477815982        3.86562488825913       -0.00246705707461
C           -1.11897515141853        0.62912579741322        0.00013404261216
N           -0.01687561429911        1.32956484304919        0.00004471080105
C            1.24909666933126        1.02788656794730        0.00041911288745
C            2.19758604777244        2.07771854339693        0.00015264100777
C            3.47708771900984        1.55829309259447        0.00066424376053
C            3.40134224623872        0.15295812953725        0.00127854632824
C            4.49817820096348       -0.71774203727837        0.00181772677058
N            5.41242821274298       -1.41142931752556        0.00258340599728
C            2.03953128377479       -0.25424964322145        0.00116562995730
N            1.77032266992118       -1.53158497008478        0.00169318777306
C            0.67713183935752       -2.24832642116607        0.00178344476047
C           -0.69689234449811       -1.97262235044268        0.00146283305305
C           -1.45125180372760       -0.81166857466857        0.00081347976920
H           -4.46223534929389        0.65631491118677       -0.00047553368895
H            1.92563290466899        3.11657243036821       -0.00040897201928
H            4.39361966219348        2.12025180401103        0.00058984247979
H            0.91146449783775       -3.31094257647997        0.00224045081908
H           -1.30350627767528       -2.87393437806890        0.00176634007206
