30
 energy: -50.092614944875 gnorm: 0.000352626794 xtb: 6.6.1 (8d0f1dd)
N            5.32834556223168       -1.21996779089365       -0.36697272203222
C            4.25484863247889       -0.81284856824974       -0.28422077297355
C            2.94479764104239       -0.35635545143722       -0.15328908542273
C            2.50723150730510        0.97164131338256       -0.18125919255630
C            1.11878554234390        1.03312904930119       -0.00321244010966
C            0.46692424196063        2.29220243707481        0.11449839357598
N            1.29300679737939        3.34707118391514        0.34808291285916
C           -0.88032469894227        2.68444584789907       -0.01396766396359
C           -2.09410448494547        2.05721473812060       -0.15271590199839
C           -2.53741658005788        0.73950779123758       -0.11881127201628
C           -3.90687655175323        0.43801854851820       -0.20354224038083
N           -4.17468176041851       -0.86512071211604       -0.11537913547746
C           -2.99198234179800       -1.47756562171327        0.02761798664628
N           -2.94898571811431       -2.82502915880839        0.17757039533314
C           -1.89332665815782       -0.55221051669154        0.04537098383467
C           -0.58773041165315       -0.96774746463243        0.16099038467873
C            0.65603904163428       -0.34824789467214        0.10941259117413
C            1.81940054737398       -1.17273549153626        0.07171020825080
N            1.88788769466191       -2.53463013856249        0.14091046251015
H            3.17919074736448        1.78844293513001       -0.37704031267862
H            0.92166814097925        4.27920806263627        0.38735539218735
H            2.27007668795324        3.21451539186454        0.52646711668814
H           -0.97616197010949        3.76721027510771        0.00604995894554
H           -2.92017980632240        2.75324673047672       -0.27203310557262
H           -4.71004026626023        1.14304707943333       -0.32736106691452
H           -2.10373977749871       -3.31845321758633       -0.05390073373077
H           -3.81536627905489       -3.29858516965725       -0.02013889987192
H           -0.50544602847629       -2.04707460329171        0.25863141764118
H            1.17134121435138       -3.03094463813749        0.64429179533625
H            2.81601354889978       -2.91884204831468        0.22517768623810
