32
 energy: -53.536349498933 gnorm: 0.000842472745 xtb: 6.6.1 (8d0f1dd)
N            5.65833486701186       -0.74856492505349       -1.07042456549435
C            4.58557386630946       -0.52314450227729       -0.72138735243195
C            3.28926159118302       -0.24297527137366       -0.28575906523633
C            2.67637058410401        1.01975021699918       -0.27976834749104
C            1.36061369188239        0.88165831977408        0.16902919319852
C            0.53879266237770        2.01726572671566        0.46814904585977
N            1.24368202118359        3.11833664754426        0.84055489692139
C           -0.83116290669631        2.18130709673116        0.39294618749723
C           -1.90266164301459        1.39427010727643       -0.05884779331362
N           -3.01105937293103        2.10878721537441       -0.39521767327739
C           -2.02135943244928       -0.00887778610472       -0.16664165590770
C           -3.18813370931610       -0.65529545829399       -0.65382511225712
N           -4.25153603952765       -0.09671213712302       -1.35861024017968
N           -3.22304342537511       -1.95678153616868       -0.34844504198888
C           -2.12288988942185       -2.20616498258174        0.35449295212224
C           -1.28900104186638       -1.08012292001097        0.48436671465568
C            0.02921396703967       -1.21630733184899        0.95992209430323
N            0.28868139357058       -2.23644598122000        1.79943657970634
C            1.16456193665767       -0.50373037829542        0.48575210439735
C            2.37678749115656       -1.16502235340702        0.23538198418071
H            3.14336807060124        1.91915923946162       -0.64146935993663
H            2.24571109279983        3.07199419334038        0.88088002927515
H            0.79602110060435        4.01253317182876        0.93221850734280
H           -1.13697704786849        3.20311654836746        0.61099729740056
H           -3.03141725618822        3.09279309889294       -0.18873017194327
H           -3.89181282760783        1.61986558645807       -0.46700400463374
H           -3.96595593474162        0.42731827064452       -2.17720353595363
H           -4.91175127779255       -0.82561376046030       -1.60294742031110
H           -1.91955293638666       -3.21925209310456        0.65467337768656
H           -0.43168618361718       -2.89819830227802        2.03174414281570
H            1.24593970975901       -2.47189553237687        2.00084350064219
H            2.55803635906022       -2.22267016763181        0.31475033814384
