32
 energy: -53.529173604622 gnorm: 0.000755260573 xtb: 6.6.1 (8d0f1dd)
N           -2.44450333558401       -3.90673259395560       -0.12366005531497
C           -1.80043530372509       -2.95257972752974       -0.10052161676015
C           -1.02583665584703       -1.77319088086782       -0.05424043009784
C           -1.80908836810864       -0.65438976473878        0.22981397110129
C           -1.62118389254555        0.70658924581156        0.14387713682638
C           -2.72304670375438        1.61123845865107        0.33561726989455
N           -3.97790254812332        1.30753823990521        0.74785602727635
N           -2.41562795126278        2.86237983266340       -0.01186024485897
C           -1.15005434722195        2.82924021719634       -0.44167110732631
C           -0.56019293664008        1.56049574017100       -0.36186299381528
C            0.81669873255213        1.34935797649551       -0.58731033499499
N            1.47068635894594        2.31183419492705       -1.27179916601684
C            1.63876081031892        0.32582131467935       -0.04777871628926
C            2.98320414788201        0.58406391098959        0.32163426493453
N            3.63182668786170        1.82088445871080        0.33736406821593
C            3.58497626854730       -0.61000550499913        0.72574278729726
C            2.67477456225719       -1.62968424966086        0.54607040385114
C            1.44026816327793       -1.09845105337858        0.10341728019724
C            0.37335418185328       -1.97010716687884       -0.21001927589079
N            0.73482644385543       -3.22159375311731       -0.59016420937236
H           -2.82807671774026       -0.93214345212303        0.49024321859504
H           -4.13566169256362        0.47996217076449        1.29586786310933
H           -4.57728774025984        2.09613539407790        0.92268623902510
H           -0.69173476580797        3.76107048566868       -0.72625444593622
H            0.97377370891528        3.09269630710507       -1.65931492921486
H            2.45643241306365        2.21267270759313       -1.44359580484662
H            3.04131152353539        2.59560365905200        0.61154192057576
H            4.47717694817839        1.79252065253451        0.89240626659792
H            4.58467952426739       -0.70507538064887        1.10895891780211
H            2.85783885653097       -2.65518979030499        0.81515868543014
H            1.70909542598152       -3.46107726149250       -0.62720466007208
H            0.05107882616051       -3.96084354409678       -0.61205379772310
