35
 energy: -61.504270671504 gnorm: 0.000551335384 xtb: 6.6.1 (8d0f1dd)
N           -5.81696927028860       -1.58873916017491        0.58307132065581
C           -4.70909552708639       -1.36048199057883        0.36865976733082
C           -3.37741333013209       -1.02922862274678        0.12768827159748
C           -2.28986315490967       -1.88338765248384        0.01642061790976
C           -1.11220339558139       -1.12511669016903       -0.14657111865080
C            0.10505827106465       -1.79070173126944       -0.26580166636142
C            1.42157431396498       -1.40036874465654       -0.18889446833545
C            2.48558994174664       -2.36056397061183       -0.27582792068289
N            2.38137228306028       -3.67157735883067       -0.58047140563798
N            3.67669476132732       -1.83522621734239        0.01719339691358
C            3.45880213225537       -0.55013272532558        0.33079944266569
N            4.53778615949055        0.23275046315296        0.65307494155650
C            2.08904420189983       -0.17452642132953        0.22176049472808
C            1.63698152699940        1.12560803382275        0.46039235311767
N            2.45714337390105        1.92526229617792        1.19835310611813
C            0.53476462140065        1.81388811238762       -0.14997657221820
C            0.82585255016505        3.17626482518607       -0.34687457574731
N            1.06963734730237        4.29133481952285       -0.51392964417095
C           -0.76182944367888        1.44028512326932       -0.53759964531334
N           -1.48517756616055        2.39867655943400       -1.18023607130706
C           -1.50360568011852        0.26806790121922       -0.20769152101062
C           -2.90110993982435        0.30223373010932       -0.03614614129195
N           -3.74323194473202        1.39409953247632       -0.01051869327782
H           -2.33186277965482       -2.95553249104792        0.07938138084414
H           -0.02652635450662       -2.86316277274842       -0.37794133185493
H            1.56811327904313       -4.00998114421463       -1.06313525601695
H            3.24606899299747       -4.16842977757614       -0.70715804324527
H            5.40804625514888       -0.24755840571634        0.46720918487296
H            4.51574679391782        1.18294205235133        0.30914862267085
H            3.14628542651616        1.49506882511274        1.79092124842871
H            2.16860279698093        2.86641255015169        1.40734863602129
H           -1.03397651069556        3.24670555116011       -1.48042572709564
H           -2.35912329391379        2.14341350185093       -1.60568771064894
H           -4.65233233895040        1.19426915000117        0.38360044232307
H           -3.34125356124921        2.26108194883498        0.31586555681456
