22
 energy: -45.104859852130 gnorm: 0.000505059323 xtb: 6.6.1 (8d0f1dd)
N           -4.42350214214350       -2.13615614911637       -0.14702090213275
C           -3.58787348316805       -1.35064805978110       -0.09098317421847
C           -2.55038423188564       -0.41334322954043       -0.02463508197746
C           -2.67833914211493        0.96444847832155       -0.14937557098103
C           -1.40672698650317        1.54686697298807       -0.01106899956467
C           -1.12368253035033        2.91691446453102       -0.08411025224517
N           -0.90247104953161        4.04067613236154       -0.15221868970075
C           -0.45756626443143        0.52961895971574        0.24392156788740
N            0.79201918337072        0.82877000007376        0.52025392954214
C            1.97016102927416        0.44684714195398        0.48779232493408
N            3.13786470813829        1.02366304237622        0.69246087565647
C            3.99910528249981        0.43493172071659       -0.12759758910882
N            3.57963856921985       -0.62316065387244       -0.82546151661216
C            2.37542734982156       -0.90979439946224       -0.38188236891840
N            1.70220001014427       -1.94317587986295       -0.25926481706907
C            0.59853212039048       -2.52875940224848        0.11739504802135
C           -0.70676450024441       -2.05193137805162        0.10862494192350
C           -1.17280529393190       -0.74756523905201        0.16661939959483
H           -3.59300795956017        1.50269847061660       -0.31623772910482
H            5.00605881199993        0.79725927475025       -0.22833934397616
H            0.74853883312468       -3.56601572743908        0.40055847239512
H           -1.48131706261974       -2.81133603897738        0.10670559695491
