39
 energy: -63.552453710884 gnorm: 0.000501222040 xtb: 6.6.1 (8d0f1dd)
N           -0.42298177173688       -4.25811985570697        1.31906940898763
C           -0.40679256682836       -3.20167817661081        0.85091748620392
C           -0.36923554470229       -1.90274333933162        0.32405146486394
C           -1.55716057234733       -1.16614304765140        0.45026829775140
N           -2.63742829659373       -1.83757479542510        0.95758791192553
C           -1.82078384656062        0.12912621563421       -0.04177731125767
C           -3.09573681545023        0.53841416945271       -0.49659179824387
N           -4.22342560372141       -0.26239593530842       -0.66534538050858
C           -3.05495242278543        1.90038754415141       -0.79274787561231
C           -1.80193511705650        2.38541000223164       -0.44460667309524
N           -1.41476649675039        3.73139060750794       -0.58127469651443
C           -0.98980989024616        1.31265256294841        0.00748287595600
C            0.28965177112224        1.51969229968351        0.57503992616360
N            0.43968000249963        2.70792002375156        1.22710434794597
C            1.43609715250018        0.71626725369862        0.40923378713825
C            2.74485570793158        1.20429409039485        0.63983721124605
N            3.11230563497863        2.27446494511052        1.46209723819057
C            3.64928430351965        0.50860437550115       -0.16842728002965
C            2.96048309927647       -0.47021349100743       -0.86069697909690
N            3.55080438699428       -1.37365909216781       -1.74840225838864
C            1.59377916226480       -0.47289174880444       -0.42920435200676
C            0.82976488537414       -1.63708930770750       -0.42762250722001
N            1.31227670887573       -2.73602357422189       -1.08360882715400
H           -3.42119777294774       -1.29139544826758        1.27013424901815
H           -2.48737424416798       -2.73539900919174        1.38828233397116
H           -4.88411316243246        0.13251608813894       -1.32071969628678
H           -4.01457175739273       -1.22988054744948       -0.87212488183156
H           -3.86122651226375        2.47700288688555       -1.21097790888403
H           -2.07786596016447        4.24201420304878       -1.15110169266058
H           -0.47780216517988        3.83846882035924       -0.95205338786191
H           -0.34832299238526        3.33531201229814        1.18227729876324
H            1.35916406539101        3.12407591433882        1.25182417064508
H            2.73387149914044        2.20290667650914        2.39870798735832
H            4.11739195981279        2.39453188598143        1.48766991186080
H            4.70465147109200        0.70798110968275       -0.23961465653517
H            3.04560859756675       -1.46563584110612       -2.62125453656286
H            4.52581370651358       -1.15583529737398       -1.91204855539338
H            0.87373742786037       -3.61687770434732       -0.85953104795523
H            2.30915369709840       -2.76826468832976       -1.25337566309011
