24
 energy: -44.545475970548 gnorm: 0.000566092344 xtb: 6.6.1 (8d0f1dd)
N            4.32911065688438        2.16897965380485        0.00370702838749
C            3.51038030329940        1.36364506700962        0.00283024324856
C            2.50059489143262        0.39340540707255        0.00138380636114
C            2.71072559912674       -0.98651365616027        0.00050365130187
C            1.46680907271479       -1.61887951905512       -0.00053397644742
C            1.25322420855030       -3.00306742784049       -0.00073626412963
N            1.09746408744573       -4.14010012407434       -0.00380523450067
C            0.43171573411708       -0.63651976012832       -0.00059863250142
N           -0.80965694568059       -1.04746644148227       -0.00148724571877
C           -1.96009573876623       -0.44227630523978       -0.00164570609679
C           -3.13769224416242       -1.22138687823688       -0.00260102543712
C           -4.24890540920118       -0.38993556489322       -0.00228381243394
C           -3.82873892104281        0.93854420591304       -0.00111199316662
C           -2.42277435366383        0.99982772976021       -0.00073252863125
N           -1.84882564302939        2.17445401637272        0.00021581888490
C           -0.60912015042804        2.59321349040318        0.00085167901675
C            0.65310864000874        1.98787186469442        0.00125816778299
C            1.10229738698788        0.67720393404047        0.00074850012739
H            3.66733787184530       -1.47643558542804        0.00083498729397
H           -3.13469301736267       -2.29529067795672       -0.00344448330485
H           -5.27290254070019       -0.71757246104995       -0.00285994231107
H           -4.45930136069133        1.80791860863651       -0.00061744982735
H           -0.56908296781944        3.68131832416035        0.00130544783167
H            1.46314259443515        2.71218150967751        0.00213496527017
