27
 energy: -52.521386350654 gnorm: 0.000614985030 xtb: 6.6.1 (8d0f1dd)
N           -2.71176183217276       -4.00620779799391        0.01015591311930
C           -2.63789940755977       -2.85967253814508        0.00771297827538
C           -2.51207526869532       -1.46609718141839        0.00353626903376
C           -3.55297230571634       -0.55300501984896       -0.00535446854160
C           -3.00900927696471        0.74379798303884       -0.00679240712750
C           -3.76025240004506        1.92678391623442       -0.01306758839532
N           -4.40327348952582        2.87707742033694       -0.01798219351402
C           -1.59607086914089        0.67436845536978        0.00224880220100
N           -0.92754300072360        1.80644819474235        0.00931616491872
C            0.31334996807349        2.17438470074896        0.01424262259689
C            1.57055895653741        1.52089864882907        0.00220481059381
C            2.65785348155757        2.43953790379414       -0.00017042069604
N            3.49128774756571        3.22551704657571        0.00159394747764
C            1.98465743523691        0.19210170140437       -0.00489451043148
N            3.31425511517510       -0.02230007051639       -0.01205169472967
C            3.51880190072637       -1.33989452550133       -0.01083329859652
N            4.74884913001944       -1.85853142153258       -0.01532377031724
C            2.28385909742541       -2.05295342849443       -0.00413775678137
C            1.27490598165408       -1.10685526293914       -0.00038046657616
C           -0.08094945889626       -1.47372004859565        0.00454488557951
C           -1.25337258392345       -0.77012394996444        0.00643230964213
H           -4.60174685966726       -0.78898928105099       -0.00954491335283
H            0.40423644198790        3.26098465850516        0.02725206298272
H            5.53337289741880       -1.22975615210451       -0.01910527047903
H            4.89673936411294       -2.85135299139740       -0.01331177309786
H            2.16972423618738       -3.11961875556007       -0.00239539708593
H           -0.21633007924722       -2.55337345181650        0.00353417000167
