34
 energy: -57.776109700561 gnorm: 0.000416055363 xtb: 6.6.1 (8d0f1dd)
N           -5.73916638773692       -2.17770654858964        0.47514587623264
C           -4.70544102706013       -1.73161580571883        0.23760151961675
C           -3.46936937973559       -1.13622413495586       -0.01378240692264
C           -2.33126986712677       -1.71934748868237       -0.54827489924829
C           -1.27671296868793       -0.77967729725152       -0.54129420196521
C            0.00288469011068       -1.23594675031900       -0.81464435471365
C            1.27976531399467       -0.77813397556491       -0.53129623761675
C            2.33546000960339       -1.71654726644211       -0.52965668626354
C            3.46863905080586       -1.13184374158950        0.01350917480355
C            4.70320341274550       -1.72582836005990        0.27539774141798
N            5.73598775663394       -2.17020975962835        0.52019081780335
C            3.16355684808864        0.22774307087912        0.30470154167232
N            4.09506585454932        1.09307678445692        0.84393623077812
C            1.82863130774048        0.48707570776477       -0.06282716964148
C            1.30321016936469        1.79872852398284       -0.19529991309771
N            2.24581795017279        2.79398915396301       -0.17782847495810
C           -0.00117217697992        2.26960116087134       -0.34580478763706
C           -1.30602255517726        1.79704527367295       -0.20454141770636
N           -2.24990172263027        2.79116986574409       -0.19328372528954
C           -1.83073405498431        0.48468864282019       -0.07655250325720
C           -3.16813517577382        0.22352065054612        0.28059793909884
N           -4.10481787129418        1.08744356774760        0.81310386681023
H           -2.24377661813293       -2.74428947736048       -0.85823349390709
H            0.00491311791393       -2.26142902743849       -1.17452005199278
H            2.25157757157695       -2.74175026083950       -0.83973597721741
H            3.73050362166131        1.79285379108388        1.47466975204662
H            4.91746663755004        0.62345600576002        1.19950637481408
H            1.95447917928338        3.72524119913875       -0.42475628792183
H            3.19620766716134        2.54998812565307       -0.40618483306432
H           -0.00124105730250        3.34524770428694       -0.52086831142911
H           -3.19837887324539        2.54617149460949       -0.42844175200953
H           -1.95791634142312        3.72290066169969       -0.43762870945338
H           -4.92950498241903        0.61662273445490        1.16174297683794
H           -3.74601435224711        1.78699256900443        1.44739228488063
