26
 energy: -47.991576273464 gnorm: 0.000535351404 xtb: 6.6.1 (8d0f1dd)
N           -4.26087066927007       -2.11013792634482       -0.04028055251780
C           -3.48860555262601       -1.25873599571777       -0.02869817280676
C           -2.51844364056010       -0.25217653783240       -0.01453183337932
C           -2.76547773625889        1.11632399767644       -0.00320429094211
C           -1.53949876773846        1.79029138189481        0.01106130103076
C           -1.39531791063352        3.18365321756618        0.02596657455879
N           -1.33046363196479        4.32927497827471        0.03939733861541
C           -0.47377951880312        0.84812944791399        0.00726551667919
N            0.75057993174107        1.29219980956475        0.01278371678528
C            1.93228047472956        0.76229043817902        0.00456496176526
N            2.96981176304428        1.62073658800781        0.00454453374045
C            4.08847805705669        0.91009691367673       -0.00795798398080
C            3.85351604510599       -0.46513422919414       -0.01302772229542
C            2.46335323355238       -0.64828030197564       -0.00569317437997
C            1.90432289965882       -1.91344452295086       -0.00112873765032
C            0.60572511480170       -2.43339928624284        0.00031140897370
N            0.53109029545745       -3.79759802852227       -0.00933694971688
C           -0.65049865001919       -1.79129160548573       -0.00871901457058
C           -1.10535996057340       -0.49580635117297       -0.00715160644016
H           -3.73547391931415        1.57978028199392       -0.00517397434805
H            5.04335928397537        1.40536536310900       -0.01294653666858
H            4.59654574225036       -1.24031156064498       -0.02196013366765
H            2.66149065222300       -2.69536574654616       -0.00108935767308
H           -0.35723425186089       -4.26233061654950        0.04539077952010
H            1.36289178999463       -4.35616030543379        0.05029063518869
H           -1.46823678016858       -2.51054025594356       -0.01786960982014
