33
 energy: -53.251110735793 gnorm: 0.000458803066 xtb: 6.6.1 (8d0f1dd)
N           -0.00227423162098        4.68789211704988        0.01334606310061
C           -0.00093915800982        3.53686090290828        0.01114486671328
C           -0.00077310535845        2.12398713635516        0.00836681911722
C           -1.29511446540310        1.59018218479760       -0.06312430910183
C           -1.84531797098975        0.32995220925704       -0.03425013650763
C           -3.27678025582011        0.16824274675377       -0.06642324830164
N           -4.20180719511540        1.16301857628844       -0.12900934365148
C           -3.59155021357095       -1.17816535522978        0.05900098579907
C           -2.40204579802537       -1.90016958341972        0.15273474924488
N           -2.35265505643199       -3.26400986032238        0.25711084487576
C           -1.28628766205234       -1.01127670105403        0.06272604103202
C            0.00030009281100       -1.52063800753241        0.00127308927257
C            1.28658291591349       -1.01026756994480       -0.05821786793352
C            2.40289041072688       -1.89810003119184       -0.15170599550704
N            2.35434073094470       -3.26155691713075       -0.26139865012904
C            3.59195053836752       -1.17572455985773       -0.05516787082138
C            3.27634178210488        0.16998419401728        0.07550114844679
N            4.20072942017508        1.16510817278581        0.14195492820365
C            1.84478918397838        0.33090632823702        0.04396082236160
C            1.29384587751693        1.59067055369987        0.07775869735759
H           -2.03546716961420        2.38560370147887       -0.11911688945788
H           -5.14879619497868        0.89654087022332       -0.33741308555595
H           -3.91861813988464        2.07485630682249       -0.44504307924465
H           -4.58253421293200       -1.59432969583768        0.08585627500602
H           -1.52970986338829       -3.66841653547976        0.67399469051546
H           -3.21665259972962       -3.70876581360470        0.52261136213119
H            0.00061786464105       -2.60718203628824       -0.00086400825154
H            3.21860969750295       -3.70472160245156       -0.52867448098329
H            1.53164513762253       -3.66482057958705       -0.67988217645734
H            4.58319748495063       -1.59115069398206       -0.08365752976569
H            3.91694684272410        2.07552098341998        0.46155923410876
H            5.14788348497027        0.89842575341625        0.34934204442341
H            2.03371080087543        2.38632351980365        0.13686233505997
