23
 energy: -44.812203013544 gnorm: 0.000692699852 xtb: 6.6.1 (8d0f1dd)
N           -4.32959866951763       -2.16511233167124       -0.00367272605245
C           -3.48861454757649       -1.38494143110539       -0.00395621026242
C           -2.47577341238216       -0.41559507752398       -0.00211119475795
C           -2.67332363977947        0.96198165397769       -0.00066749997832
C           -1.42599894353087        1.60103079575345        0.00045129799666
C           -1.23752388794893        2.99069505833981        0.00213700564076
N           -1.12191923410084        4.13174889390502        0.00256050684473
C           -0.38688846116960        0.63318482119979       -0.00023244927663
N            0.85247414145896        1.03420721176847        0.00052301082490
C            2.00258323072850        0.43242204992671        0.00018667045948
N            3.09179007801384        1.22572201234539        0.00127943258910
C            4.16367301629804        0.45001165835319        0.00071167480651
C            3.84110306173682       -0.91283322347593       -0.00077476643922
C            2.44557705917965       -1.00517271731319       -0.00119990778743
C            1.78014830389934       -2.22586268953107       -0.00253145738127
C            0.43757068628533       -2.59608216374752       -0.00320038321386
N           -0.70734463761930       -1.95315624261487       -0.00292972895235
C           -1.07482286600818       -0.70697959199834       -0.00178929549526
H           -3.62714746690547        1.45873157646866       -0.00050982742095
H            5.14729429351268        0.88463314483769        0.00139341407721
H            4.53303716846121       -1.73365160438985       -0.00145416351137
H            2.45403941908197       -3.07737242640207       -0.00319722872361
H            0.27008778568286       -3.67164961589985       -0.00425269838669
