22
 energy: -45.105879977363 gnorm: 0.000560140524 xtb: 6.6.1 (8d0f1dd)
N            1.48164342459307        4.09820555985942        0.68240566623657
C            1.51267815004053        2.96938268757366        0.47677960830575
C            1.54760587874659        1.59112821613117        0.23160892026819
C            2.66713083100289        0.88434777054665       -0.26252387858877
C            2.34161996052097       -0.45256020457320       -0.41535536891993
C            3.18969678271529       -1.47157143321989       -0.86816102270033
N            3.88703374518202       -2.29743289932643       -1.25219211233360
C            1.00968694324071       -0.65700650015352        0.08458387032008
N            0.57855907997044       -1.81064860366968        0.43904101852640
C           -0.56277216481056       -2.28249546168888        0.88441207354644
N           -1.73393220820171       -2.05920746784727        0.38568672240713
C           -2.31450361738777       -1.01254539355340       -0.11201320352346
N           -3.49223440449634       -1.06433672081986       -0.74819930963907
C           -3.93853028985741        0.18555663961057       -0.73987441186560
N           -3.13702482333844        1.10795986932465       -0.19584056218214
C           -2.03444358949737        0.44709312690450        0.16871085528541
C           -0.85755406685703        1.13414415200574        0.44094841818170
C            0.45775907362156        0.70879065221858        0.37694167303421
H            3.62093307019958        1.32616773544936       -0.48936671857343
H           -0.48395579397181       -3.10218430974008        1.59184333061262
H           -4.89585344437302        0.44687861334764       -1.15181491839261
H           -0.99479398214002        2.21016956361730        0.49172985939514
