29
 energy: -46.371777836527 gnorm: 0.000619567777 xtb: 6.6.1 (8d0f1dd)
N            1.86589737186119        4.16428181777813       -0.09170586467635
C            1.35649255574529        3.13415367327960       -0.06759078301330
C            0.75004832027923        1.85491757839629       -0.03743726399955
C           -0.65280817746232        1.92016859761937        0.00395591285632
C           -1.68087343966655        1.00874720184114        0.02674025248613
C           -3.02246561578600        1.49148020945656        0.06214736883172
C           -3.90257026896918        0.44360093258761        0.06104866500306
C           -3.15878819239851       -0.75675184633076        0.02287339466775
N           -3.73266310266552       -1.98772985588219        0.04861925361610
C           -1.77021030537428       -0.44966678444722        0.01149956909745
C           -0.81910418015481       -1.46093202684737        0.00715518090503
C            0.56101225288682       -1.53410421581706        0.00457358663624
C            1.17854202643741       -2.81026025815278        0.01658542042857
C            2.54825365681340       -2.68513307260485        0.00790797000253
C            2.86157808249791       -1.31671037478158       -0.01179611572454
N            4.12882756267930       -0.83599966674893       -0.06816647023622
C            1.64735783054705       -0.55735241515945       -0.01689878550807
C            1.69021665779871        0.82266723248027       -0.04544888405214
H           -1.00729452089050        2.94909932143363        0.01666284364910
H           -3.28431719430489        2.53404081479268        0.08203849522804
H           -4.97573999187668        0.50079780066462        0.08167663476301
H           -4.72105020522731       -2.04386918534649       -0.12644677420850
H           -3.18718024959883       -2.79547952645706       -0.19829971799707
H           -1.26082152253553       -2.45482090681605        0.02065375819664
H            0.63984397630243       -3.74148804068318        0.03498131840402
H            3.26710584299928       -3.48403226677026        0.01622755163977
H            4.88229912069295       -1.47623001838597        0.11194608917997
H            4.30910689992862        0.13656934618296        0.11092208111281
H            2.70280322834129        1.22039778921825       -0.08178315968858
