31
 energy: -49.809582656538 gnorm: 0.000713936278 xtb: 6.6.1 (8d0f1dd)
N           -5.50608328011288       -1.50488215015150        0.10843407382112
C           -4.40361334651590       -1.17290109084453        0.10726907845074
C           -3.08480982286437       -0.72283003716689        0.09607523262973
C           -1.92956183917323       -1.47879331098347       -0.07495746318070
C           -0.80097678690323       -0.63809248834358       -0.03947829236403
C            0.46400930809113       -1.20505737624690       -0.10321427853335
C            1.77161740518350       -0.76216208942628       -0.04734754890604
C            2.82879033003703       -1.73201895774937        0.00600159549010
N            2.69995109578817       -3.09368560794686       -0.00300430984023
C            4.05317927877457       -1.06901119799869        0.03059801933876
C            3.80741797170020        0.29040268915575       -0.03185433120148
C            2.42048431781398        0.54642014756514       -0.07457312686459
C            1.92541104082409        1.86258615054053       -0.16871532251875
N            2.85601792772486        2.82682993737838       -0.43281662790987
C            0.64155157541471        2.41316063196848        0.05195896926150
C           -0.63862523845494        1.95278963362831        0.22287778499224
C           -1.28780644439208        0.72077809080960        0.15476400923906
C           -2.69767139361316        0.63639496377143        0.24608550477979
N           -3.59234785869275        1.63470996208580        0.49117148324886
H           -1.90695594280405       -2.54565256275825       -0.20944281766157
H            0.39235782269710       -2.28628840254234       -0.19179497074639
H            3.52092121903093       -3.61159093418753        0.26426304074897
H            1.82862540616340       -3.49402774231341        0.30368962597653
H            5.01860051734740       -1.53696668028616        0.09440312353295
H            4.59346406522554        1.02305970162108        0.01677214821420
H            3.77229962377679        2.57629134929770       -0.75155659713723
H            2.56433395472439        3.78070269140637       -0.54600360611927
H            0.69063011577374        3.49943107682851        0.07812292987345
H           -1.33296549089946        2.76871659828759        0.40782058583353
H           -4.56295279464106        1.41942322486843        0.33001207160528
H           -3.31734498722396        2.58880842863369        0.33205720364712
