31
 energy: -55.419987848696 gnorm: 0.000998723008 xtb: 6.6.1 (8d0f1dd)
N           -5.94223985854105       -2.31510744377736        0.42912508760433
C           -4.89677240788856       -1.87086571569717        0.26024279885181
C           -3.62791375662760       -1.31720962777191        0.05091074270755
C           -2.43738929399289       -2.00962843528458       -0.14440824684448
C           -1.37345026248544       -1.08765261403118       -0.25024799157786
C           -0.08139893256245       -1.59100229256885       -0.38985981545933
C            1.18921011267506       -1.07446243648299       -0.25141631184499
C            2.30362752095518       -1.93603146779091       -0.32035575122613
C            3.46051094651090       -1.24393289533550        0.01360615851538
C            4.76610891110768       -1.74044717154223        0.07689681061351
N            5.85459042713454       -2.10381330353534        0.14070587432293
C            3.10671657991585        0.10048096231208        0.30548054530680
N            4.00119167163131        1.03183997973213        0.67806412080752
C            1.69858923749404        0.25074012075436        0.11402948292099
C            1.11208599880034        1.49319783738799        0.21034625207699
C           -0.13564595993597        2.05223521167088       -0.07459033569576
C           -0.06162344975629        3.46718721222777       -0.04373640798593
N            0.02534072693817        4.61304270977600       -0.00627134086840
C           -1.42880956127250        1.54590576293724       -0.37487682504639
N           -2.30664869782504        2.46582235305901       -0.82125998156725
C           -1.96088627607660        0.23851147233394       -0.18772250025923
C           -3.33775126814997        0.05719578105927       -0.00519719526334
H           -2.33322063110456       -3.07873059126980       -0.17029646127688
H           -0.07715333698726       -2.66359654125794       -0.56373205719325
H            2.26089684660928       -2.97942625113967       -0.57435037542285
H            4.97222319696374        0.77951243525279        0.74666065311327
H            3.73334416114678        1.97552184378003        0.89006926652296
H            1.81937185056174        2.27159515435988        0.49047043460505
H           -2.04988142168873        3.43904964851843       -0.86892680385607
H           -3.25391051052215        2.20477557847888       -1.02897227775998
H           -4.07867231222855        0.82135165724595        0.15386971417976
