36
 energy: -61.209934631979 gnorm: 0.000645389156 xtb: 6.6.1 (8d0f1dd)
N           -1.66563465109368       -4.72953106578733        0.27761329201926
C           -1.38803830200190       -3.61789083095356        0.16463945533797
C           -1.06538767323932       -2.24824416456441        0.03924057922888
C           -2.16042949502415       -1.50725868016738       -0.41346262101260
C           -2.49664970618899       -0.17286194403069       -0.46932673169487
C           -3.79594103268307        0.18177105833133       -0.93655185093042
C           -4.00271489551677        1.52044815408427       -0.75322859231056
C           -2.85272040284735        2.06571628018823       -0.14275179011052
N           -2.74355836417174        3.40985644514268        0.16117223165838
C           -1.89165882467557        1.04318285298595        0.04173083376823
C           -0.61789707726745        1.29043658040844        0.60089391327913
N           -0.52585687907005        2.41954273092559        1.37428096547628
C            0.61582659469974        0.66542818396096        0.29984100707648
C            1.80064540903915        1.43413147882319        0.22494881577595
N            1.96379429588884        2.79521531525706        0.41020391338556
C            2.86913256266988        0.59356071313449       -0.14386001462373
C            4.16498403922376        1.00703387286514       -0.43007674414202
N            5.23232093004682        1.35693494897350       -0.68756448259151
C            2.38503670744807       -0.72505026430753       -0.21268836124410
N            3.20047601808941       -1.80164725434505       -0.51165470461480
C            0.99429048316582       -0.72171351430038        0.05233402967892
C            0.29611019305420       -1.93275631198105        0.27694134708978
N            1.06882756844440       -2.99004640656266        0.64614069181629
H           -2.97284718643860       -2.15037818532495       -0.74535718848829
H           -4.49517382895089       -0.51698843371001       -1.35797737807074
H           -4.87948227162821        2.08407011304975       -1.01636575525430
H           -3.44798256264633        3.97478261933777       -0.29241787285030
H           -1.81679841452466        3.80509020140103        0.08645264559194
H            0.30990754881251        2.51915065908894        1.92845814839834
H           -1.38136540246532        2.74534185439464        1.79480022735424
H            2.83894186644395        3.13888313209576        0.03726186628748
H            1.17369142993498        3.37079056873610        0.15639059556084
H            2.76000157055818       -2.55467619156582       -1.02135193650459
H            4.08987731819305       -1.52555824239141       -0.90600594741376
H            2.00663884795682       -2.83172556238686        0.97099487940768
H            0.63609255546520       -3.88092955780537        0.82509210206507
