25
 energy: -53.845264350315 gnorm: 0.000668628984 xtb: 6.6.1 (8d0f1dd)
N            5.00676991204235        0.00217481853076       -0.00318642305397
C            3.86286506150871        0.02759563975378       -0.00383365432662
C            2.43795535933213        0.12757696626519       -0.00285061711701
C            1.96962115215372        1.42909242898106        0.00726365681337
C            0.69155238996379        2.00076269466098        0.00882746169382
C            0.74978337248775        3.43191134237015        0.01446926260309
N            0.88037877947528        4.56847974178653        0.02385266838465
C           -0.62646399051012        1.54306029755242        0.00179197008378
N           -1.54663442678625        2.53286604050252       -0.00179365470851
C           -2.74595381437046        1.99499234071787       -0.01081268761524
C           -2.68888592709735        0.58172363003719       -0.00921771497762
C           -3.84486437727244       -0.20888617355712       -0.02708889468904
N           -4.85925599246929       -0.74436260391832       -0.04571836727268
C           -1.31786091854198        0.23365827299759       -0.00092269863972
C           -0.85625657702171       -1.08392703780537        0.00902837806152
C           -1.84879386391363       -2.11102838655491        0.03842607773729
N           -2.62419901669981       -2.95193405722853        0.06928332953942
C            0.42667622293026       -1.63652397776934       -0.00306189572197
N            0.51012995259187       -2.98321313450969       -0.00828097583652
C            1.80156132867816       -3.26667155176207       -0.02361300698088
N            2.61406295820985       -2.20627472656685       -0.02436496514632
C            1.81615942324874       -1.13454948544482       -0.01231790664580
H            2.76284168968228        2.17258882786898        0.01332382531731
H           -3.63207887784568        2.60219525097624       -0.01822398234678
H            2.17286894901895       -4.27317244538422       -0.03424751545550
