27
 energy: -46.942500834233 gnorm: 0.000692930458 xtb: 6.6.1 (8d0f1dd)
N            5.36133049662574       -0.82958997878977        0.52162893969787
C            4.24958394591849       -0.59503329469556        0.34789762579891
C            2.89905422738512       -0.31180947492565        0.12458378910574
C            2.35028218952458        0.96509217006140       -0.09909733569644
C            0.97381597873083        0.83326253451579       -0.22198465506602
C            0.10127413907662        1.93692370244611       -0.50654126357225
N            0.51270891991107        2.83698450314239       -1.41669691923940
N           -0.96755228607660        2.22873576454048        0.17639535408947
C           -1.90483355438267        1.58746964550920        0.79407616155862
C           -2.43454225897320        0.32820278086365        0.51976659504401
C           -3.78382190482105        0.01383514992675        0.78177415072912
N           -4.11790571088552       -1.18734077172911        0.32977512548043
C           -3.01195710120647       -1.71640421510763       -0.19860370827149
C           -1.90212422440155       -0.85152256143695       -0.14040024877305
C           -0.57146361025390       -1.26158954533784       -0.40403920710839
N           -0.41173571621971       -2.49433534314462       -0.91971312876155
C            0.64406335488765       -0.56807112960048       -0.13486736970488
C            1.86496620273575       -1.24465419272378        0.05683163904131
H            2.90306256131002        1.88717134311026       -0.10058931512376
H            1.41627782447039        2.73467433946070       -1.84452506363186
H           -0.00993164819262        3.68587293968066       -1.55304373305006
H           -2.44147467668454        2.19049795502851        1.52307947430523
H           -4.51381057403181        0.65772482000442        1.23737611058767
H           -3.06492844261207       -2.72075131723033       -0.58236985367658
H           -1.19296601438240       -3.11792311747871       -1.01573040262353
H            0.51463560731609       -2.84920143327520       -1.08053482499551
H            1.99745923283179       -2.30000833571473        0.21813475645655
