30
 energy: -50.096733866919 gnorm: 0.000392379648 xtb: 6.6.1 (8d0f1dd)
N           -5.63447987976710        1.24146222784030       -0.40427226706730
C           -4.52671483627567        0.94655082962970       -0.29325065898942
C           -3.19972246748940        0.54455215005737       -0.16427748919409
C           -2.05521452098323        1.34309071792513       -0.22669474303798
C           -0.90519935873519        0.54964748677090       -0.08726803861467
C            0.34843645922265        1.16301299249884        0.02121277767826
C            1.64704346193320        0.72093912193048        0.13136288073899
C            2.74299426722698        1.65128483188087        0.17804549828016
N            2.63705049951611        3.00086230300043        0.29040294254062
C            3.94327351092797        0.96857272902867        0.01029018319431
C            3.66423357565324       -0.38814208117475       -0.14944396631418
N            4.60522019900133       -1.36054182364149       -0.26002375932804
C            2.25304775965008       -0.59694903694476       -0.04896817331207
C            1.68029456057264       -1.84138457369045       -0.22627898650442
N            0.55005874823720       -2.36319547049328        0.17795918809585
C           -0.65224967102422       -1.96978748294556        0.44833302174352
C           -1.36280904067511       -0.81669292562147        0.10217895402134
C           -2.77903317470592       -0.79059124643378        0.05991561776795
N           -3.62540971539634       -1.84104231918181        0.20747580734922
H           -2.06125552138136        2.41170031471375       -0.35036519115575
H            0.25810697577142        2.24571700857109       -0.01000455371267
H            1.78740376753331        3.39211448629759        0.65911147202020
H            3.48095053032683        3.51854646704375        0.46590755439032
H            4.92199659881499        1.41265211362576       -0.00068538072867
H            4.31764691289150       -2.27739120845517       -0.55726918980213
H            5.53971437185191       -1.07964359341724       -0.50363556842627
H            2.32529024241158       -2.60815099531943       -0.66019194694374
H           -1.22745330612098       -2.74201781246333        0.96249165788094
H           -3.26871676955621       -2.77809747790751        0.15229583049877
H           -4.59504505733284       -1.69825118972480       -0.01913104326911
