28
 energy: -46.647271579973 gnorm: 0.000423195277 xtb: 6.6.1 (8d0f1dd)
N            5.27453701381324       -0.73139154570853       -0.37562683033045
C            4.15880144195326       -0.46961790110316       -0.27548149095688
C            2.79986699201242       -0.18945793781449       -0.13230499323701
C            2.19773447871395        1.07427070080705       -0.12640228677005
C            0.81176207627284        0.95650421598772        0.02500650261779
C            0.00422510513587        2.11868438080995        0.13069935428189
N            0.67370005125393        3.26094392369009        0.42848321604976
C           -1.37228188204745        2.34615678307447       -0.10613234283538
C           -2.49182985989830        1.57454437963309       -0.26124771033086
C           -2.77539477001014        0.21499164863811       -0.12228168397495
C           -4.09465839925822       -0.26614381290404       -0.18567335352686
N           -4.18173386227156       -1.58345095292427        0.02951999198458
C           -2.93946286592792       -2.00609912764139        0.22857312918919
C           -1.98266921698126       -0.96478988114002        0.15339480515358
C           -0.62576863333048       -1.23103501977942        0.23998502657997
C            0.52562085039728       -0.48011589544983        0.11594492489083
C            1.79013705633807       -1.15122137846350        0.05584672487063
N            2.02558765260854       -2.48379002645484        0.07784369464254
H            2.76020321424078        1.97559755360819       -0.29370843652885
H            1.64644160616772        3.24675081733554        0.67110600041570
H            0.18801581019816        4.14006260757049        0.45116787603439
H           -1.58650373808566        3.41048212072115       -0.16162240988300
H           -3.38635481978037        2.15243769039625       -0.47715206421623
H           -4.98147964340916        0.31444030395197       -0.37030053029747
H           -2.73822533901894       -3.04709491747604        0.41411341823930
H           -0.44111253278763       -2.29294747056090        0.38373935357389
H            2.98282688179696       -2.78975360487439        0.12207639522499
H            1.31873592630581       -3.12469255242963        0.39250343393923
