32
 energy: -53.537279344890 gnorm: 0.000692302657 xtb: 6.6.1 (8d0f1dd)
N            0.31214029795983       -4.60776013578187        0.05331648690106
C            0.31791951144989       -3.45534372590404        0.06662169748833
C            0.28695441888025       -2.04452641662691        0.06162698104017
C           -1.00605868308906       -1.58387850620583       -0.20172580771720
C           -1.64354816264892       -0.36893372044352       -0.11963471513041
C           -3.06692763394410       -0.25297627425269       -0.23214151765104
N           -3.95226779070669       -1.21836058879894       -0.55075678078567
N           -3.50828328595730        0.99093253183586        0.00575957132602
C           -2.42157421321662        1.73460187577922        0.24582298788398
N           -2.55592289744402        3.06301197565738        0.48417846164763
C           -1.20310432040689        0.99057630024343        0.15893826708149
C            0.02515089927431        1.61014393832846        0.14682964347461
C            1.33646259105600        1.17640970764337       -0.01618596489748
C            2.36817479109943        2.14385295687844       -0.23171173876666
N            2.20951458121718        3.50401530826132       -0.33544861159134
C            3.59915530337469        1.49193690310171       -0.30043862911612
C            3.37714349562676        0.14403019959406       -0.09733588145585
C            1.99531044930400       -0.11256632384224        0.06919762015834
C            1.54394634058420       -1.42619036541780        0.32724007273537
N            2.47255711029432       -2.27739021685883        0.84023086089021
H           -1.67652577567920       -2.40767735543978       -0.43989009432413
H           -4.92510738355022       -0.99264858401822       -0.43826682651482
H           -3.68142392538900       -2.18499907917933       -0.52179369139874
H           -1.83328719959226        3.53528480440832        1.00052305339453
H           -3.50019245122340        3.37395689842843        0.64243329043372
H           -0.05118487228696        2.69085369686005        0.23136853914850
H            3.00486432201769        3.99664220724314       -0.71040591177755
H            1.32311582761386        3.84326402291100       -0.67338549203873
H            4.54799902517698        1.95970538193115       -0.48969725698775
H            4.15821453128684       -0.59423438281402       -0.16157599470251
H            2.28934832166454       -3.26716521493509        0.85678081525266
H            3.41569987505242       -1.96425518768622        0.97619108759673
