35
 energy: -61.504259057443 gnorm: 0.000552638623 xtb: 6.6.1 (8d0f1dd)
N            6.04982348326693        0.16897248327809       -0.49523764157893
C            4.91779369742405        0.08502493166506       -0.30158530236797
C            3.54363440755463        0.02666876132186       -0.08285255897016
C            2.77580679811732       -1.11755438720593        0.18367036132463
C            1.42373905031119       -0.77346605750368        0.26713442474990
C            0.44780302377172       -1.76927344431912        0.56403266900344
N            0.90661228920198       -2.80892181645899        1.30448111584092
C           -0.86569522021609       -1.90164118430487        0.07162584810205
C           -1.36733030561086       -3.21486173052778        0.13648139879218
N           -1.77954286137459       -4.29142070135295        0.17950795478350
C           -1.80776079537706       -0.99246390202843       -0.50076069388643
N           -2.77996532866791       -1.57718468520390       -1.25583823949683
C           -1.98996159912236        0.36710826489355       -0.21198147134045
C           -3.25840587793289        1.00415745731505       -0.27107068848694
N           -4.47941684306090        0.45897746969707       -0.57803041081289
N           -3.21110827264917        2.30234378878215        0.07371452563104
C           -1.93450898858776        2.57612318653914        0.33443137327298
N           -1.55772818578804        3.83867805176403        0.65672556304563
C           -1.08248561911776        1.43013281254609        0.19081891407226
C            0.28694881251585        1.56116074300162        0.20523451074238
C            1.33844283265632        0.66020355761428        0.08226696868541
C            2.67007557849563        1.12888781339560       -0.11604986298568
N            3.07354545746242        2.42363098503202       -0.28264448030456
H            3.19365587439208       -2.10893747467386        0.21412585814861
H            0.35976371840939       -3.64963914062583        1.39307225229159
H            1.87380770739325       -2.83418715081715        1.57245100163457
H           -3.36821503762952       -0.99063970326390       -1.82198245134110
H           -2.69060633968294       -2.54782726663064       -1.50638097140091
H           -5.23390962448943        1.09024683494567       -0.34495376727629
H           -4.63162768712144       -0.49114740503531       -0.26940299347994
H           -2.31630147430667        4.47448034690188        0.84032205732340
H           -0.72054850042497        3.96996033263881        1.19834104588772
H            0.61742044007564        2.59138871672765        0.30301603715229
H            4.02431709856839        2.54886652514941       -0.59293037594194
H            2.41054348204811        3.08700627443946       -0.64733036191318
