28
 energy: -46.654378860441 gnorm: 0.000770694479 xtb: 6.6.1 (8d0f1dd)
N            0.09184174104641        4.30015850848196        0.06438922323133
C            0.06612171882061        3.15099084705003        0.05190613788781
C            0.03681075934162        1.73573918515417        0.03508202469005
C            1.31757242588360        1.17442275351002        0.02302844016953
C            1.85118023693323       -0.09872889009221        0.00735529543739
C            3.27528805448897       -0.27992948082567       -0.01786133101426
N            4.22049058029258        0.68251772106558       -0.02975308895112
C            3.56550254739791       -1.65575244202765       -0.00405609273814
C            2.37628204360818       -2.34272362208260        0.02428768661289
C            1.27839639443476       -1.44183561366469        0.02669835928485
C           -0.00502577701763       -1.94600621289872        0.03806108248375
C           -1.27867133954579       -1.38687897397675        0.02331337198824
C           -2.41875644256584       -2.20748112223946        0.01507479125977
N           -3.57206144832506       -1.53708820258110       -0.01224574206773
C           -3.24419585843920       -0.23977057076797       -0.01903722071849
N           -4.20818231948874        0.69462317304534       -0.02796162077705
C           -1.81322909608271       -0.03244021271949        0.00593150791818
C           -1.27249969017016        1.22700650932024        0.02050885531426
H            2.07540306381599        1.95586145811333        0.02877313740700
H            5.18338751386101        0.41942056589374       -0.13781063756986
H            3.98222786644241        1.65176767372525       -0.14102573647655
H            4.55357002954774       -2.07797018707544       -0.01572933805388
H            2.27325843267308       -3.41300629652388        0.03836299673382
H           -0.03446657844863       -3.03247371263304        0.05214667135789
H           -2.42749128180787       -3.28330135886888        0.02410325410270
H           -4.00058780425864        1.66995260546077       -0.14075932157875
H           -5.15830037127661        0.37993405675657       -0.11317896385335
H           -2.01040252496130        2.02700202650037        0.02170762491983
