27
 energy: -47.725699804322 gnorm: 0.000597621973 xtb: 6.6.1 (8d0f1dd)
N           -5.61911785523146        0.89507420908658       -0.30776647804323
C           -4.48452605586703        0.77888409197182       -0.17745265423070
C           -3.10162337733716        0.62484965339498       -0.01172037120932
C           -2.15068876251122        1.63575483659601        0.03488872583043
C           -0.86469086798337        1.06157488762283        0.14801599025596
C            0.23622871446799        1.90838967257409        0.16625995897490
C            1.59483808170074        1.71180029103561        0.02842938481864
C            2.49991079767182        2.79897578704845       -0.04594085115842
N            3.74218436959008        2.41916206895673       -0.32228166998289
C            3.71388117697273        1.09342636392219       -0.45167420242102
C            2.42915218243556        0.54753901410456       -0.23639562904239
C            2.22637331703315       -0.82171339256406       -0.25330134345738
C            1.18557318272722       -1.66251143268464        0.11661575420886
C            1.60069493850153       -3.02018910426879        0.12894976592032
N            1.94620661246760       -4.11576340638631        0.12886156632954
C           -0.17820303299654       -1.47475656200575        0.49598749955333
N           -0.74529181418753       -2.54125019092317        1.08844086393622
C           -1.05570749032658       -0.38153329601640        0.24466542033061
C           -2.43361122514345       -0.60361232693022        0.14784464140833
H           -2.35099407343150        2.68829274747887       -0.04260203391978
H           -0.03739669485366        2.95826150498782        0.22920219769278
H            2.26014759453231        3.83874582777881        0.08699694677193
H            4.61210776140127        0.54591902614806       -0.67488917291131
H            3.12382921820323       -1.36935995057698       -0.53387279132142
H           -1.71032059477806       -2.51506573128527        1.36809599437466
H           -0.23134538881382       -3.40170391954081        1.19728896538676
H           -2.93705111184426       -1.55376106282493        0.10943936990491
