21
 energy: -45.377605747898 gnorm: 0.000749696617 xtb: 6.6.1 (8d0f1dd)
N            4.33090743196551        2.20503582950228       -0.43282358997625
C            3.50163314680880        1.42725054599497       -0.28417682704078
C            2.49512227865932        0.46588176247108       -0.11545687297770
C            2.64905357912002       -0.90591805297188       -0.18019978167710
C            1.40139109880921       -1.52670082316936        0.06780931070020
C            1.17017167880733       -2.90936677862038        0.04367202992366
N            0.99509444407831       -4.04262017791087        0.01707145452748
C            0.43528908059510       -0.55075748859296        0.35697409026519
N           -0.81300338428268       -0.86319325592642        0.59671535716520
C           -1.98851051719653       -0.45397894679457        0.48650759867043
N           -3.16312399175686       -1.06205717922455        0.58128522977809
C           -3.96013864987312       -0.44179791102693       -0.27607702229151
N           -3.48488036125357        0.63899045653751       -0.91258122085704
C           -2.32343258025428        0.89789535878223       -0.35801780423578
N           -1.67282097269372        1.94915672470533       -0.14722958811314
C           -0.55241343021455        2.43802824487077        0.30631019038406
N            0.66773105475387        1.98188070241928        0.18137351332215
C            1.12821730917017        0.77495616425095        0.18852147501242
H            3.56534394340020       -1.43085197309153       -0.37964734224105
H           -4.95833408423121       -0.79419091691411       -0.46253408691473
H           -0.63059167251198        3.44046552300942        0.71649297717612
