31
 energy: -54.617410505868 gnorm: 0.000660190750 xtb: 6.6.1 (8d0f1dd)
N            5.76503820744045       -0.05664407323448       -0.67185442374308
C            4.63920391956252       -0.09865777536806       -0.44527071577418
C            3.27213364586959       -0.15457967971326       -0.15666187126508
C            2.45763354793813       -1.28306255342459       -0.24058201192311
C            1.13445304656634       -0.91950270175012        0.07327134256534
C            0.11442909466226       -1.89351528211109        0.24238781302995
N            0.55083644749475       -3.13871879020529        0.50486424815916
C           -1.28249299816422       -1.72106612456544        0.12769779119952
C           -2.21085877363021       -2.77015411496708        0.31238988467497
N           -3.44316751790502       -2.43587640854357       -0.04861229835973
C           -3.37439421989256       -1.19489218104787       -0.52404621775239
C           -2.07725594280168       -0.65308162081085       -0.43305899600613
C           -1.87998351805989        0.72465059126283       -0.68796811052388
N           -2.68217329205253        1.28794021732819       -1.61024363358758
C           -1.09060111883434        1.61448522946280        0.09010751992761
C           -1.62491630058457        2.91455225307672        0.18464581683363
N           -2.06245273327550        3.97687646239421        0.26020280743930
C            0.14332189385676        1.43390673622683        0.73937343871757
N            0.51835501844483        2.37621289611607        1.62594278151194
C            1.15359662522509        0.48673974853850        0.38494649320943
C            2.47895558575183        0.91856044988330        0.27839457883396
H            2.79806775589670       -2.24630716297628       -0.57689079276438
H           -0.08567380896447       -3.91498041511132        0.51718591100615
H            1.53393414077793       -3.31004081275902        0.61916210620431
H           -2.04145148146262       -3.75063118233775        0.72176964232366
H           -4.27818410128625       -0.69293307839802       -0.82228110031744
H           -2.74888762482392        2.29082495227581       -1.68301672777016
H           -3.36914553334688        0.72388885918240       -2.08029985161349
H           -0.04822443998426        3.19618202924240        1.77413544782331
H            1.45216836720583        2.35777504107273        1.99837223263693
H            2.83576435215366        1.92629462525379        0.39703098159204
