34
 energy: -57.775143491945 gnorm: 0.000885236026 xtb: 6.6.1 (8d0f1dd)
N           -5.52647020546017       -0.80057846059686        0.81853754842429
C           -4.41070187557278       -0.74195096725048        0.54171843806391
C           -3.06288114588943       -0.62501868698093        0.20775914743969
C           -2.10692713416073       -1.64097296658823        0.18060818142608
C           -0.85182018676807       -1.09079491214804       -0.12321491216658
C            0.26806032751693       -1.91861033454273       -0.40148379249543
N           -0.05793654158841       -3.16052764507271       -0.82381203782480
C            1.64465230936568       -1.64269666248356       -0.24273538860864
C            2.63747588988715       -2.61998182633167       -0.48246955828118
C            3.85002939959333       -2.18731100460934        0.02345491736946
C            3.65512516983952       -0.94918250740521        0.61386325180134
C            2.31259516711016       -0.55016252501392        0.43270381039443
C            1.95564008332392        0.78715111288270        0.71552805757518
N            2.66086602526388        1.42087809643604        1.67693116772930
C            1.09371543932621        1.62089548587857       -0.05466991374049
C            1.53132713901020        2.95387381145203       -0.14199164582325
N            1.88389666610300        4.04883350054267       -0.21621148787665
C           -0.14843221519323        1.37103852763564       -0.66522454757881
N           -0.63651787669764        2.32415530271445       -1.48821709947772
C           -1.05246326051735        0.32770375044506       -0.32368377125884
C           -2.42590114752766        0.58396179655044       -0.15436485999873
N           -3.09449637861399        1.79722585034339       -0.27667307593406
H           -2.31488842526728       -2.66200639562441        0.44717125150285
H           -1.02514757471322       -3.40309387359399       -0.94363758735928
H            0.63051248185677       -3.88855262735784       -0.86531984353757
H            2.50841965196595       -3.55622682187152       -0.99579689325304
H            4.78416431706069       -2.71493101588360       -0.03532652046582
H            4.44607214077285       -0.35052443007740        1.02996472015011
H            3.39984772969318        0.93381457033383        2.15310274469521
H            2.62455060210936        2.42483740931770        1.75197586737625
H           -0.11641691281150        3.16654537474114       -1.66944419359470
H           -1.55647169821468        2.21493973741580       -1.87852889910616
H           -2.57858998414568        2.60687132241009        0.04108482805471
H           -4.02368213645768        1.76351525683262        0.12283395397846
