29
 energy: -56.762602626165 gnorm: 0.000730545849 xtb: 6.6.1 (8d0f1dd)
N            3.45488478557525        3.81097100057536       -0.54929624592725
C            3.26566205138047        2.69232220979232       -0.36754461086439
C            2.99698374857733        1.33909752355605       -0.14359023688829
C            3.90658365960755        0.38434516639281        0.32364903000101
C            3.26728957146426       -0.85262401376976        0.40382849111129
C            3.85122938070683       -2.05409185949867        0.82046098038243
N            4.34009670987060       -3.03206649135394        1.16972154803544
C            1.92111220075509       -0.70895028911503       -0.05003972458739
N            1.19957482085835       -1.74041493896159       -0.36064226959073
C           -0.01284367975522       -2.01993937679938       -0.70115160867386
C           -1.24328580474713       -1.38302472718823       -0.40846216563660
C           -2.32831690154459       -2.28958548406597       -0.54775958930381
N           -3.14563046999705       -3.07016698883827       -0.73867268579088
C           -1.56001500783712       -0.06611087742238       -0.07459966644870
C           -2.87576491383276        0.32540172175764        0.26496142939804
C           -3.97288933968822       -0.45974184301117        0.63135386561984
N           -4.93405578024199       -0.97257743190268        0.99747499024084
C           -2.96481554211134        1.74100896938384        0.23785015071660
N           -4.06898177851364        2.45347363935959        0.49337381410328
C           -1.69384786715877        2.23858478211385       -0.10139767112921
C           -0.78906266643774        1.18767242539150       -0.24557647230140
C            0.56728642439810        1.47682578067919       -0.42116657151715
C            1.71827160707809        0.73185878321921       -0.30459451258136
H            4.93520727539495        0.57252152930568        0.57258178419374
H           -0.10642004283259       -3.00356297887862       -1.15769849501069
H           -4.05567331031335        3.45681458477009        0.44811259453046
H           -4.92054231813763        1.98249942255152        0.74948145887046
H           -1.44773617932101        3.27994036229853       -0.19640481721566
H            0.75577856140415        2.54385391985700       -0.51160573623548
