29
 energy: -50.380907978849 gnorm: 0.000541037084 xtb: 6.6.1 (8d0f1dd)
N           -5.29207758013266        0.18102474400796        0.46611839114892
C           -4.16597940235325        0.01658153493344        0.29465941056237
C           -2.79332054248189       -0.13366867829942        0.10425825132550
C           -2.09650954788906       -1.32746071556744       -0.14550589680798
C           -0.73674384296003       -1.05065205213832       -0.18616843256138
C            0.24086862640161       -2.06997402903764       -0.39937607689930
N           -0.05333237865310       -3.04670972038955       -1.28010325124841
N            1.30770908340956       -2.25101961612315        0.33347475363435
C            2.19625352913581       -1.50458568885691        0.89878894217948
C            2.61545935557539       -0.22358222019108        0.53582816833851
C            3.95294108685968        0.19289414647951        0.68510980224078
N            4.17406693119589        1.37979672310075        0.13421042539870
C            2.99784992479432        1.80288110084118       -0.33668825628528
C            1.95745656995080        0.87404451660830       -0.14449503347369
C            0.57939959850248        1.18873490206307       -0.30457014891335
N            0.30428989152140        2.44889079096307       -0.70019749884674
C           -0.55532535080743        0.38129877737150       -0.03342217586012
C           -1.85951381700936        0.91633618739233        0.14655832826909
N           -2.21257982707775        2.24903716177899        0.32796933395064
H           -2.54962156067099       -2.30046773226782       -0.20567723197616
H           -0.94920286529453       -3.05281270599242       -1.73434671512294
H            0.53610591974358       -3.86027955999644       -1.33195450913062
H            2.79168776055381       -2.02077976132216        1.64834974514024
H            4.75478783253128       -0.37340191515655        1.12291297912035
H            2.96066023307196        2.77498572111173       -0.79863031494854
H            1.05106985184238        3.08019080272353       -0.92493013715499
H           -0.63953335862570        2.69200782287594       -0.95498784837906
H           -1.59378462058351        2.77162347968385        0.93435715057276
H           -3.18227062334847        2.35119444340520        0.60133945422856
