29
 energy: -51.174527973645 gnorm: 0.000951169880 xtb: 6.6.1 (8d0f1dd)
N            6.25972857167968        0.34851219766201        0.49839129928505
C            5.11775435890827        0.29148028093529        0.39306885977202
C            3.72430834474721        0.22395673972790        0.26455060975915
C            2.86071196070970        1.30925651457825        0.08414180079403
C            1.53597625355427        0.84179043974171        0.00324103145743
C            0.48347152813318        1.74534422145445       -0.07828640300860
C           -0.89062040211569        1.62848167668017       -0.07394658218903
C           -1.68078389424155        2.80252763731803        0.03336044687563
N           -2.97362520140329        2.55739307617303        0.09802512321855
C           -3.11526526724386        1.22216669328230       -0.02100904605552
N           -4.38234874067882        0.69737631316259        0.02527059738806
C           -1.86953471764472        0.54787686293591       -0.15860576061215
C           -1.78103949694693       -0.82064567733665       -0.45842975821630
N           -2.90604958825268       -1.39514483787359       -0.94199251973302
C           -0.69920029740878       -1.73987874145297       -0.23074729368377
C           -1.08952065349204       -3.10011989022037       -0.32196961685645
N           -1.40229280430804       -4.20387514415036       -0.39390467518586
C            0.64809795670282       -1.62734639129052        0.06275894326308
C            1.59381965914671       -0.60618545303639        0.12536908960014
C            2.94874715565570       -0.94142843044668        0.29901840054823
H            3.15946691788697        2.34035512813254        0.02775294537948
H            0.81487212910377        2.78020597107696       -0.08968370304848
H           -1.31098339480225        3.80945121423751        0.10076680284935
H           -4.49117337219445       -0.18200288297263        0.51097782902102
H           -5.05997279149002        1.39729986815107        0.29750170877320
H           -3.65403612808494       -0.80985676712612       -1.27611000499691
H           -2.90280177520124       -2.37109252306545       -1.19220080476613
H            1.10714674511931       -2.60267560709837        0.21667740516525
H            3.33282044176249       -1.93799264837939        0.42304206750295
