29
 energy: -51.975327401858 gnorm: 0.000830015590 xtb: 6.6.1 (8d0f1dd)
N            5.91262956607392       -2.28220304707196        0.00027124838771
C            4.89098781800614       -1.75888966506429       -0.00119946323030
C            3.64007137530355       -1.12681376263870       -0.00047985086316
C            3.40775689340004        0.25046998211252       -0.00018004019015
C            2.01888745312048        0.49364692020441       -0.00012070938677
C            1.57051373113636        1.80951619677899        0.00016166092904
C            0.32629360164842        2.42998731251288        0.00059131851256
C            0.41759867405442        3.84973770770960        0.00292339839457
N            0.48811783337438        4.99424865961874       -0.00093740152611
C           -1.00508823762406        1.98136550242589        0.00089031059758
C           -1.64072387666958        0.75911260749354        0.00039147126686
C           -3.05336667590453        0.73659945702447        0.00087056192851
C           -3.51107890703965       -0.57220850963937        0.00033780942517
C           -4.83664282092934       -1.02018905084813        0.00137237029944
N           -5.90392245537517       -1.44487028865182       -0.00136918506818
C           -2.38426224032628       -1.43936388888854       -0.00078471647450
N           -2.49164998870944       -2.77708898125221       -0.00141127358065
C           -1.19535603794852       -0.64605973419122       -0.00050224378710
C            0.04247342237485       -1.24661940712370       -0.00061901422312
C            1.36773010739221       -0.81102632231554       -0.00033194364236
C            2.39507080440365       -1.77001608256892       -0.00046441843797
H            4.16926210296099        1.00912949767157       -0.00015422756302
H            2.39077729567695        2.52375828980647        0.00029636961452
H           -1.70900543360828        2.81067527587879        0.00174840954475
H           -3.68114242897200        1.60887809504606        0.00176366067360
H           -1.68670873054369       -3.37725948317984       -0.00334194113729
H           -3.40589468108239       -3.19622219046871       -0.00224480863014
H           -0.00625437997795       -2.33283105741678       -0.00090588253143
H            2.25355874088451       -2.83630974396422       -0.00068540180211
