23
 energy: -44.828538237659 gnorm: 0.000647822724 xtb: 6.6.1 (8d0f1dd)
N           -1.41126266841254       -4.11935989634359        0.52911957836314
C           -1.45896179590812       -2.98376358913478        0.36627811976663
C           -1.51436135495052       -1.59907850554744        0.17020192318269
C           -2.63499808616817       -0.89486856776508       -0.31894141887666
C           -2.32646476867987        0.45295180218222       -0.40851141048100
C           -3.17814783853811        1.47681042475414       -0.84027888596248
N           -3.87723550971991        2.30925232638189       -1.20800027089015
C           -1.00262763720907        0.65515598739925        0.11231633665566
N           -0.59867239896980        1.81343792220350        0.50444304201243
C            0.53418193376011        2.31017003371728        0.93452497450006
N            1.72003419618300        2.08578576868283        0.45903587320589
C            2.32593774191608        1.03131981716956       -0.00077836075068
C            3.59802446994340        1.03873478652603       -0.60433379853272
C            4.05959708526384       -0.26691967421398       -0.54104536608721
N            3.16552328215474       -1.11963032926057       -0.01893233180498
C            2.05993884623862       -0.42709224681432        0.26539416986770
C            0.87584361356075       -1.11760256577386        0.48005216493964
C           -0.44228119392203       -0.70238031214375        0.37167875689125
H           -3.57703060823809       -1.34124025504431       -0.58253223138478
H            0.44077687573936        3.16502723409862        1.59736281305373
H            4.12269458002346        1.90338825558671       -0.95625150712356
H            5.01976528185269       -0.63420894960999       -0.85649058188757
H            1.01791720047964       -2.19279856385223        0.53249516534299
