28
 energy: -52.250081694274 gnorm: 0.000996371525 xtb: 6.6.1 (8d0f1dd)
N            4.86390069438535       -2.62688873487111        0.00291546181216
C            4.13599528749632       -1.73785782809451        0.00215656239259
C            3.24079439363374       -0.66219176313617        0.00118045914122
C            3.61406351029119        0.69037877339995       -0.00013157020584
C            2.46181288262718        1.46365835630799       -0.00145051601611
C            2.40534269259157        2.86211467747475       -0.00269703932210
N            2.37165247526892        4.00986984471749       -0.00391754080299
C            1.31026350313142        0.60678698929060       -0.00079600350890
N            0.14006084462864        1.16728859828599       -0.00167875531067
C           -1.10296007635755        0.75693329939339       -0.00158113199676
C           -2.11198331546482        1.73085591023462       -0.00284336546374
C           -3.36707438623652        1.11815158253493       -0.00257080243261
N           -4.56731000492976        1.71886138054393       -0.00357544551033
C           -3.15557824033873       -0.29058929812638       -0.00101203622593
C           -4.19061475280943       -1.22666442944690       -0.00066480702650
N           -5.07032238527736       -1.96788476832448       -0.00037515974214
C           -1.77196925917120       -0.57173063396480       -0.00035810555969
C           -1.32622298248284       -1.88650709788964        0.00112301403409
C           -0.07899784420543       -2.49632048994845        0.00212161662879
C            1.22997029085157       -2.03430415699441        0.00199799569301
C            1.82643490073137       -0.78048203214124        0.00084668016086
H            4.62406378766219        1.05854640726173       -0.00018442930503
H           -1.91916940451455        2.78620824190970       -0.00385681896273
H           -5.40980346508439        1.17040946332102       -0.00336510876636
H           -4.63252989881666        2.72081126730411       -0.00477861904842
H           -2.14820057028200       -2.59804597082554        0.00148980751731
H           -0.14162751702444       -3.57858889685983        0.00291381378675
H            1.96425921849623       -2.83612204135671        0.00292964354005
