32
 energy: -54.321668993389 gnorm: 0.000732122865 xtb: 6.6.1 (8d0f1dd)
N            3.77858611401348        2.57699048131077        0.60879195003588
C            2.79216583590504        2.04260364399545        0.35452497025514
C            1.54289938578174        1.41577239587444        0.11083464312651
C            0.47771241686988        2.33387765374198        0.00870386677141
N            0.83683750979378        3.66862564801378        0.00665145410330
C           -0.89732200148676        2.14174913485929       -0.18376348602226
C           -1.80948123931108        1.10937404620258       -0.14568871739771
C           -3.18039105687581        1.40840960878738       -0.27917895251504
C           -3.93447390600254        0.25583023294147       -0.08622185010069
N           -5.28581313443195        0.13949430317669       -0.17894541926916
C           -3.04342711979704       -0.80832606407006        0.15791424463724
C           -1.72950912835628       -0.34559416764272        0.10428014429619
C           -0.64437827851594       -1.23217412741319        0.19647059920327
C           -1.06221033664931       -2.56911946028440        0.45341973211407
N           -1.40311741889749       -3.63704032062590        0.70186384561015
C            0.74087787700611       -1.12641806923361        0.03354474770017
C            1.52631933783999       -2.28615749323199       -0.05198095907657
C            2.87132986628037       -1.93659023048733       -0.18652953445709
N            3.90764364248570       -2.78908631370522       -0.38289470932825
C            2.95674519459802       -0.53425363157161       -0.14872403893694
C            1.68297485574090        0.01764535002460       -0.02512754011290
H            1.77421111375892        3.91947197701968        0.27150064313091
H            0.12402600831491        4.35261941764977        0.19053024819561
H           -1.39781289185093        3.09258909428905       -0.35633866521428
H           -3.57734287033183        2.38777391861932       -0.47430303644538
H           -5.83904194116354        0.97879621281620       -0.16465306507770
H           -5.71367959495770       -0.69265618064509        0.18865440517926
H           -3.34316594528879       -1.82508637166883        0.32905689469432
H            1.15066142104064       -3.29168466912597       -0.04415687590912
H            3.76006238093692       -3.76891092798845       -0.21370983173619
H            4.84361501842224       -2.43760555693379       -0.27879626625690
H            3.87369431572874        0.01921677240621       -0.22667732639747
