24
 energy: -44.550730317811 gnorm: 0.000758371378 xtb: 6.6.1 (8d0f1dd)
N           -1.23707806455899       -4.13948531124673       -0.00076575329448
C           -1.35966239372786       -2.99810555676190        0.00134197899291
C           -1.51134021108839       -1.60496873380982        0.00011507075183
C           -2.74519110007829       -0.93588938713849        0.00008605750152
C           -2.50257883363004        0.43063303670580       -0.00008638015283
C           -3.48054002280859        1.43458245746478        0.00042412336302
N           -4.29803066888383        2.23932647908600       -0.00060472960849
C           -1.08738584366628        0.67082224380403       -0.00045689357233
N           -0.69082993109425        1.90917047975405       -0.00087150682831
C            0.44955648364484        2.55228631078467       -0.00114805639806
C            1.79815090923059        2.19699275399850       -0.00060909717823
C            2.48907384042695        0.99320689437303        0.00005123768318
C            3.89580637833267        0.94155587616780        0.00043256803386
C            4.25127192556097       -0.40260560011529        0.00080893969827
N            3.18625801373746       -1.20286821110751        0.00068336272929
C            2.08569172327156       -0.42904382350135        0.00023893380086
C            0.86954926174372       -1.09299042001124        0.00006455865231
C           -0.44771016792752       -0.66805830343669       -0.00028095867507
H           -3.71111936375109       -1.40763527954561        0.00048836264593
H            0.27832309889782        3.62791218473643       -0.00183817318226
H            2.45804421944546        3.05951346296188       -0.00077860115853
H            4.55966729335896        1.78444018307860        0.00041467304086
H            5.24158107338974       -0.82071531107917        0.00115634499657
H            1.00126165217444       -2.17198219616175        0.00036183185816
