28
 energy: -46.640127454850 gnorm: 0.000784062423 xtb: 6.6.1 (8d0f1dd)
N           -4.13226652387701       -1.72237915410342        0.18746083150440
C           -3.07538578936268       -1.27856707453661        0.09434550367476
C           -1.75385819673828       -0.76611551258567        0.01070901829457
C           -0.76848498689918       -1.77115880796597       -0.03090234496567
N           -1.24172126651891       -3.06395601184877       -0.10114645055823
C            0.63918476139974       -1.70819871054939       -0.05439349035225
C            1.63711407903812       -0.76313782231222       -0.02112950131654
C            2.98728105877188       -1.18414626877136       -0.03320326602491
C            3.82528323480295       -0.07954792313435        0.01736227116929
N            5.18341246819856       -0.08467312109122        0.08265003755926
C            3.01181659108026        1.07774555014615        0.05931049130101
C            1.67184131216866        0.71397988703907        0.03186480609311
C            0.67549900124191        1.68493746080778        0.02902208581778
C           -0.69844070780422        1.67989013885843       -0.01087595748698
N           -1.27965827860238        2.90875247753703       -0.02920276703920
C           -2.58953636628046        2.72983966435806       -0.05354358613707
C           -2.94210530772829        1.37924924001634       -0.04058560922163
C           -1.75032632329319        0.64543239055549       -0.01927446514920
H           -0.61100376257388       -3.82386827927570        0.08110575224881
H           -2.22072864911365       -3.24029166140440        0.04654239582961
H            1.06172569043019       -2.71069644233552       -0.09905444169188
H            3.30855356074526       -2.20908588960417       -0.07265489215402
H            5.66848916997486        0.77779002668104       -0.09664191750560
H            5.66705663672224       -0.93242147539727       -0.16029992011568
H            3.37807934091747        2.08732250835779        0.10057870377077
H            1.05960703151918        2.70043403454337        0.05218511229625
H           -3.25684183491693        3.57338125596925       -0.07871545429514
H           -3.94053832170181        0.98737195764619       -0.05472609164626
