31
 energy: -54.615489035510 gnorm: 0.000854845368 xtb: 6.6.1 (8d0f1dd)
N            2.37611968704527        4.35667482983381        0.20904262618795
C            1.88834605799538        3.31809256755475        0.16366187980264
C            1.30823270410653        2.02540513225852        0.11106873930178
C           -0.08352312284708        2.03480539962925        0.16571630357430
C           -1.08208692790123        1.07437130177208        0.09957061898718
C           -2.41217826582628        1.52497578790638       -0.08252213988847
C           -3.26564605729459        0.43915563376618       -0.15066505567259
C           -4.63975182399415        0.43236002687677       -0.39593859961121
N           -5.76812162665331        0.36896154614570       -0.60939412934793
C           -2.48986650940436       -0.73904635061706        0.05799756177189
N           -3.05098421477860       -1.99407064145394        0.05866494244573
C           -1.13811430527359       -0.37544614893058        0.22522368865386
C           -0.15087944798785       -1.33284062696355        0.58357086051863
N           -0.61788760267836       -2.42744887232306        1.23030146460580
C            1.21976923108523       -1.36330103388142        0.24147753051202
C            1.92277452111662       -2.57488972091543        0.15141725132336
N            3.18296564928987       -2.44269253080278       -0.26955364403646
C            3.38485516540133       -1.13398516639908       -0.42986280671203
N            4.59179827850107       -0.67501002207395       -0.80398130764004
C            2.19849074093971       -0.35779695305320       -0.13761463577864
C            2.25544269856990        1.01337021841268       -0.10425891809187
H           -0.48665453207635        3.04445675426430        0.19224487794240
H           -2.70329313709611        2.55404592702566       -0.18480757249235
H           -2.46666385093335       -2.75279225384125       -0.26125990745747
H           -3.99201178831216       -2.02006630090630       -0.31006864838783
H           -1.55016676027999       -2.41460891493814        1.60845482951121
H            0.03344710269186       -3.10034628446416        1.59239302721491
H            1.54229800936242       -3.57132472692677        0.29663647074390
H            5.28508600000132       -1.36163419119489       -1.04404346383274
H            4.72101939299665        0.27212380259469       -1.11032410540092
H            3.24851202653438        1.41821698874501       -0.28330702354762
