32
 energy: -53.529494092641 gnorm: 0.000832158788 xtb: 6.6.1 (8d0f1dd)
N           -5.55873767142048       -1.00705605786654        0.95904946820675
C           -4.47567241662637       -0.75138103995265        0.66152772686609
C           -3.17516841371612       -0.40831165781483        0.30433210611290
C           -2.02277085837987       -1.19083670724772        0.46963320056533
C           -0.89409527083701       -0.47705649487283        0.04917707083414
C            0.36923426688020       -1.11886873617965       -0.15338386820304
N            0.28718009284487       -2.47728180116979       -0.29631241575801
C            1.65810398158255       -0.56698654579903       -0.21232595777584
C            2.84337281791745       -1.34808225639492       -0.33630210935400
N            2.94072367893396       -2.65297478273866       -0.78739720342886
C            3.94179946443068       -0.62112704168593        0.12822705109638
C            3.51118975225325        0.63776139180382        0.52122990177148
N            4.32764416421711        1.64574477227596        0.94537674400565
C            2.11022425428297        0.74953866511738        0.24066214366062
C            1.46818880822170        1.96848201179158        0.26121620302565
N            0.45626969780611        2.41151082220132       -0.44477608463706
C           -0.66693149436827        1.93250331499059       -0.86391141403933
C           -1.37606248272616        0.81697939577955       -0.40024488739314
C           -2.78613685621960        0.81403088783921       -0.28301076659223
N           -3.65110513714251        1.80840612707779       -0.64425499135035
H           -2.05034516160396       -2.17103986103073        0.91510194566621
H           -0.62067388650127       -2.89174971014825       -0.17191824715842
H            1.07919024943187       -3.02989546979843       -0.00694803594007
H            2.34938943785887       -2.87210119891094       -1.57704594825303
H            3.89667814460947       -2.95195107754817       -0.92317435975409
H            4.95426778635275       -0.98141753619756        0.16423715333608
H            5.24877270708461        1.37891422629181        1.25024625578365
H            3.90914703314982        2.41308110129784        1.44335669110930
H            1.97250833822073        2.78225322378959        0.78190844370808
H           -1.18080136443999        2.59643385417805       -1.55861879931652
H           -3.28223100583889        2.73318989373638       -0.78320694222751
H           -4.57829864605853        1.75863447568612       -0.25402623876644
