33
 energy: -57.281416812770 gnorm: 0.000852740774 xtb: 6.6.1 (8d0f1dd)
N           -5.70981474737254       -1.52087242302932       -0.49439157081317
C           -4.60131374609109       -1.25015767146788       -0.33678217841419
C           -3.27593687693478       -0.86460659180733       -0.15524840265915
C           -2.13838916730249       -1.66590456006930       -0.18172183643730
C           -0.99320676678465       -0.86594235876539       -0.00975109417551
C            0.26663660996781       -1.46556014021880        0.09224970274611
C            1.55545654508679       -0.98775370181673        0.14190647137880
C            2.69262480724005       -1.86474124051585        0.25751103583208
N            2.66607314915143       -3.20351952473028        0.46155456244802
N            3.85165236525997       -1.23110333763925        0.10186381695541
C            3.54613917141948        0.05930444233835       -0.15140472367165
N            4.55623740801251        0.95176960163963       -0.38817522315515
C            2.16045829295346        0.30861070488618       -0.12463040860165
C            1.55371931632323        1.54416049974648       -0.41796256896006
N            2.28195553183991        2.45636737608509       -1.14246440845573
N            0.45200445079268        2.03467086847857        0.08723818623604
C           -0.70950691049086        1.65326243615089        0.52695036499498
N           -1.35269506497128        2.59430265956875        1.28317475237444
C           -1.45829342195481        0.49577270799346        0.16998640089035
C           -2.85882651595107        0.47302409266733        0.09061232336877
N           -3.73363996102060        1.52816931728504        0.23607668886288
H           -2.13514783691088       -2.73193983116298       -0.32098118982182
H            0.19967412765228       -2.55007880299747        0.11050150166928
H            3.55405277772102       -3.63241539940301        0.65968306336564
H            1.85061699747267       -3.61767883688799        0.87793318214626
H            5.46378057684409        0.59525774834588       -0.12704776448872
H            4.37672114929333        1.90579266562379       -0.11339627448943
H            1.77428227811542        3.27618001480925       -1.43626244754278
H            2.96119755204903        2.08989692184128       -1.78919109485695
H           -2.13411015772419        2.29665894124527        1.84209126968704
H           -0.78727042476930        3.35017804473158        1.63378926142495
H           -3.37119348398985        2.43654624651532       -0.01397853713519
H           -4.66118644322704        1.34364262126015       -0.11981261780237
