29
 energy: -50.385996740351 gnorm: 0.000523961140 xtb: 6.6.1 (8d0f1dd)
N            5.66476838388929        1.25562443168998        0.34216226434166
C            4.55506197216224        0.96036001496855        0.25752570195446
C            3.22582008882256        0.55691381015997        0.15565372237295
C            2.08273776617489        1.35374075397780        0.21608078110345
C            0.93002438446657        0.55691484415694        0.09993486980246
C           -0.32277768939767        1.16784138775529       -0.01046438772735
C           -1.61032526207074        0.69530396776570       -0.12498701035208
C           -2.74532820889232        1.57635012101826       -0.17453890588738
N           -2.72784118968495        2.91641195882362       -0.28436349398489
N           -3.91429247591420        0.93641130595162       -0.04503403692964
C           -3.61604627561964       -0.36238891039062        0.10532528091577
N           -4.60160657963500       -1.27416649169245        0.19419614628481
C           -2.21127342285920       -0.62054787875644        0.04993760460407
C           -1.65936281754175       -1.86931362373870        0.26147721404656
N           -0.51634563027961       -2.38835529638678       -0.10402872420887
C            0.68144680259051       -1.98091766416963       -0.38018091451049
C            1.38367996214595       -0.81297734618226       -0.06578821654187
C            2.80256045959922       -0.78440265814136       -0.03678898088095
N            3.64679094885412       -1.83291329908401       -0.15259713529232
H            2.08756153203314        2.42474619886136        0.31647982561273
H           -0.24943379495615        2.25184767792726        0.01369483440349
H           -3.61349166244410        3.37930898527518       -0.38857738188248
H           -1.89341132079423        3.39292132380303       -0.57441753366655
H           -4.38924634917905       -2.21228966356138        0.48352390485704
H           -5.53596628687244       -0.92680017677696        0.32362104754108
H           -2.31874612065276       -2.62276633071334        0.69543581990381
H            1.26640463588682       -2.75890602947193       -0.87471000188225
H            3.29843274945233       -2.77398083847127       -0.15235461413712
H            4.62885257911641       -1.68266590279740        0.00004138084046
