28
 energy: -46.664828132312 gnorm: 0.000716512119 xtb: 6.6.1 (8d0f1dd)
N           -5.41426662295205        1.40032569634009       -0.39113553190851
C           -4.32698860576328        1.04490276154877       -0.27354963564434
C           -3.00879434692969        0.60681533341155       -0.12248346142903
C           -1.87315432935575        1.40263854311293       -0.05319035577139
C           -0.73350925138459        0.57400764682991        0.06391554327445
C            0.54077666666100        1.12890989750707        0.20550977765143
C            1.82311129840395        0.63067495906463        0.11826133279105
C            2.96525901467109        1.49486170014462        0.20215381291267
N            2.95967881501264        2.79163259488739        0.60359979168448
C            4.09253218197535        0.81022685283479       -0.26854218988409
C            3.70519022511328       -0.45901789317204       -0.65147816443890
C            2.33316795207365       -0.64639924483029       -0.38666262816896
C            1.70309666340066       -1.85536076614867       -0.63045012935106
N            0.63206749914364       -2.37839816037806       -0.10287213753650
C           -0.48056470211277       -1.97671455104406        0.43049949654921
N           -1.06724658161016       -2.83887602904857        1.28820102027925
C           -1.22447544838697       -0.78518137988506        0.11714930835624
C           -2.60428155948170       -0.74357709686921        0.02039176076081
H           -1.85666916659190        2.47619332511750       -0.10786224070666
H            0.49641163913461        2.20595272102602        0.34919289647064
H            2.18018311487520        3.14524808939722        1.12991454536620
H            3.84507943214937        3.24744360772617        0.73700349460253
H            5.08471719431714        1.21932886648670       -0.32722512979341
H            4.35398411823288       -1.21903817424298       -1.04828662521663
H            2.25929730777286       -2.56691480186494       -1.23856030951599
H           -0.63114983419687       -3.72582599867765        1.47166052025462
H           -1.99091756140350       -2.65368078460847        1.63492967680486
H           -3.27189709766811       -1.58731297446582        0.00201766140689
