27
 energy: -51.729045038874 gnorm: 0.000692439115 xtb: 6.6.1 (8d0f1dd)
N            4.41764005925317       -1.63354968678093       -0.95749905207005
C            3.55766672106130       -0.92056613732610       -0.67971232178649
C            2.53147676822134       -0.04456193209705       -0.33764803953815
C            2.68424688756499        1.32275597136824       -0.08040189255809
N            3.82328925331538        2.02791790908285       -0.14185768347429
C            1.40952753437146        1.84300011171601        0.26593624893820
C            0.45227175854169        0.84619701081909        0.21827027817388
C           -0.92358822987708        1.15360491562355        0.35158974170926
C           -1.20189045026597        2.51233977603628        0.67128612562197
N           -1.40298676924403        3.59920387983135        0.97497710099273
C           -2.06413141395696        0.43100560620470        0.04696817264424
N           -3.24078317942274        1.06321823015062       -0.15327208709036
C           -4.02077764540124        0.15715808194827       -0.72205948597320
N           -3.51453110507272       -1.07159199354302       -0.86991137637111
C           -2.28997020128929       -0.99956495669072       -0.34371038946505
N           -1.61310451829953       -2.07034144553459       -0.05224774068588
C           -0.40769357867384       -2.39045460104257        0.29232858726905
N           -0.28111095348661       -3.57103905262251        0.94064557342696
C            0.82318120400419       -1.73324903987720       -0.05490099166360
C            1.16235947108715       -0.41699528828164       -0.11185435615490
H            4.67819040635522        1.58373009139392       -0.42853113789158
H            3.82214666920398        3.01221420387026        0.05641826277544
H            1.22058958660303        2.87605709363369        0.49206050447213
H           -5.01774787401427        0.39492279304957       -1.04531835233857
H           -1.11055806811333       -4.11811278407894        1.09629840697123
H            0.62004447120229       -3.98485963497905        1.09596792532815
H            1.64306146063208       -2.42128296687786       -0.24010422156324
