27
 energy: -52.506789650211 gnorm: 0.000542161741 xtb: 6.6.1 (8d0f1dd)
N           -3.28864825102231       -3.63917067814575        0.02463602215018
C           -2.98511026561850       -2.53091261817131        0.01665999244198
C           -2.56800237626575       -1.19573609536703        0.00665389811583
C           -3.39194331250134       -0.08273741446097       -0.01427222391011
C           -2.58690288996664        1.06965788002234       -0.01804503085297
C           -3.07529262126659        2.38287132916835       -0.03532805106033
N           -3.52197616716477        3.43934897238399       -0.05185140463944
C           -1.22016809140076        0.69724446225716       -0.00143049031664
N           -0.31012720779753        1.63251378585086        0.00923984330083
C            0.97800175885441        1.68255418206320        0.01885963755252
N            1.51851361512882        2.92081709382681        0.03544503662732
C            2.83008610568051        2.79509759332700        0.02917719042231
C            3.24636363475470        1.45493431613817        0.00347038880198
C            2.09681109216344        0.66448392600150        0.00212004936678
C            2.16187307947844       -0.74040259959807       -0.01259085526121
C            3.50507166805073       -1.20824631769104       -0.05663929423008
N            4.58310912909871       -1.60085940348916       -0.09977087756950
C            1.20828270756447       -1.78183734540417        0.01561965213534
N            1.70404649164068       -3.04953410056563        0.03399167937639
C           -0.20727193275506       -1.73854843723236        0.02732066227457
C           -1.18728778115433       -0.78385407174139        0.01170926701958
H           -4.46676135208303       -0.09317435529555       -0.02498905738892
H            3.46244071079540        3.66475772959994        0.04293207382587
H            4.26443274214303        1.11633824241121       -0.00710908195060
H            1.08375323096838       -3.83945053247581        0.02738377759077
H            2.69504103182245       -3.21948730192235        0.01128213453638
H           -0.62446595304763       -2.74476559968975        0.04353416964122
