29
 energy: -51.974118372759 gnorm: 0.000887790430 xtb: 6.6.1 (8d0f1dd)
N           -6.17744091180688       -1.79300845476936        0.45775008522536
C           -5.09307669269139       -1.43055883928585        0.36074220875245
C           -3.76704489580913       -0.98830776269515        0.24275337939582
C           -2.65487408121298       -1.78889407283699       -0.02707413950388
C           -1.49918964135306       -0.98342235069253       -0.06584252928098
C           -0.25021622990585       -1.56936944106783       -0.17549168738470
C            1.05845426430779       -1.10872141266083       -0.14506231018046
C            2.09670205543562       -2.05919857388716       -0.01541639336528
C            3.31869819845359       -1.40150065277278        0.02590987194654
C            4.58067968724029       -1.98487710022592        0.20480043752923
N            5.61882772173366       -2.45363018374801        0.34733740276828
C            3.07661205664237       -0.02695993606229       -0.15279552589286
C            1.69962206786981        0.19808431630246       -0.25515728249661
C            1.20821867665567        1.50603158627255       -0.51374749738053
N            2.08227104909719        2.35197893156863       -1.08859041077206
C           -0.04154544868684        2.09652624151713       -0.15325350771063
C           -0.01936151101696        3.51705232096087       -0.15592688833806
N           -0.01260645642796        4.66526318784083       -0.14722117770654
C           -1.29654406861951        1.62012473275527        0.19344002795969
C           -1.93954132413800        0.38875100424598        0.17647985721788
C           -3.32795460126556        0.33490298148946        0.38397141229411
H           -2.67410164379657       -2.85414841501699       -0.16853925171877
H           -0.30405155357153       -2.65366885148099       -0.22669851773311
H            1.95399961814427       -3.11982744181375        0.07625604270310
H            3.85588391055541        0.71412292459001       -0.12411669985169
H            1.85577033199173        3.32769850514746       -1.20101468717829
H            2.99682933328012        2.03424646995716       -1.35688934422232
H           -1.97772435103145        2.42713152262089        0.45617489083027
H           -3.95945125897480        1.17843553044903        0.59636580889461
