34
 energy: -57.778298086882 gnorm: 0.000476929114 xtb: 6.6.1 (8d0f1dd)
N            6.33285193547427        1.09376250329194       -0.30695775130219
C            5.25495139343696        0.68973009914970       -0.29669738015106
C            3.93379831855015        0.24793753708921       -0.25448645190047
C            3.44951157623897       -1.03262666631026       -0.53593386968403
C            2.06386947981385       -1.07523715395387       -0.32785420240939
C            1.39194368255326       -2.29573050484092       -0.42850904193302
C            0.13860674259566       -2.74493107371942       -0.10249002721055
C           -1.09308731077398       -2.16386875981758        0.26448069133958
N           -2.01033561644561       -3.09046170584174        0.70823381182375
C           -1.58951067426155       -0.85297376193737        0.10567490450818
C           -2.97822596376032       -0.58861436893685        0.03583509905984
N           -4.02399811323811       -1.47825036929626       -0.00346269333121
C           -3.18936964834181        0.80867821226843       -0.02887817319843
C           -4.42467886500502        1.43318254195240       -0.16718113735626
N           -5.44824220899335        1.94437565482198       -0.30125862288230
C           -1.93985188598469        1.44184090498596        0.01059980772653
N           -1.78690057003740        2.79549471038689        0.00642899162555
C           -0.91527008349143        0.44755920919901        0.07350797126317
C            0.40108775207912        0.86026507862840        0.16730096118542
C            1.64687212035052        0.26198426882903        0.05527259970174
C            2.83278661263051        1.04946648864952        0.12725083798315
N            2.93421606249200        2.37055225794508        0.44277813700911
H            4.05845194758983       -1.86520712126628       -0.83951897473055
H            2.05975873601876       -3.09435228529733       -0.73936397854861
H            0.06620468446826       -3.82999785838957       -0.11778333037386
H           -2.76182216749090       -2.75730392506159        1.28969236861515
H           -1.65368168261563       -4.00375883802794        0.93942014859139
H           -3.83359596867532       -2.37328876648229       -0.43047853696228
H           -4.90128978416366       -1.06277475329907       -0.28577384740557
H           -2.61041931300039        3.33204168033881       -0.21600483894885
H           -0.91712890132388        3.18573522327400       -0.31554141190970
H            0.48088268740884        1.93520215900446        0.30380941156423
H            3.86753615098342        2.72551746988553        0.57907142449331
H            2.21944287411838        2.78957649716293        1.01403671684975
