28
 energy: -47.452932450966 gnorm: 0.000974646323 xtb: 6.6.1 (8d0f1dd)
N           -6.00025681519394       -0.14710492277679       -0.36756140925312
C           -4.85448810350667       -0.13830778526315       -0.29627382531024
C           -3.45553637545355       -0.13002989569927       -0.21021395852924
C           -2.63581541205404       -1.25158420288107       -0.04427506045223
C           -1.29125556184958       -0.84302922668649       -0.00258877269000
C           -0.27670659338578       -1.79003997414742        0.03010494951574
C            1.10485405278092       -1.75585111257982        0.00331429173513
C            1.80409521891039       -2.97951127916045       -0.17303830524749
C            3.15914752727112       -2.74097988084753       -0.19131856216129
C            3.36116168628812       -1.37983671194695        0.04050029394274
C            2.12516607804393       -0.72212664440028        0.16171106678501
C            2.07129749024318        0.65879780135959        0.46447533258445
N            3.18102294048439        1.17950297771818        1.02763198342831
C            1.05480444548520        1.62448825809812        0.17411074950607
C            1.52025935303386        2.96488187199688        0.21164274937818
N            1.88745885777413        4.05382772839129        0.22957457346434
C           -0.29729915942593        1.57989901690837       -0.12556956127346
C           -1.29194382205895        0.60993314057013       -0.13942423113207
C           -2.63424067838348        1.00084527872235       -0.28557866037925
H           -2.97972818037623       -2.26737661633022        0.02852485717569
H           -0.66429044388353       -2.80569191056218        0.01291637327647
H            1.32589852924066       -3.93250430777507       -0.30570488995377
H            3.93497368881563       -3.46645633344205       -0.35141467393584
H            4.33309545656678       -0.91770415264727        0.03804943815750
H            3.96257577916060        0.58824096113998        1.24553958681584
H            3.27072233600007        2.17400732209906        1.16116429442596
H           -0.70114307553185        2.57240327947262       -0.31822681278703
H           -2.97853976068975        2.01100756506987       -0.41440834908768
