33
 energy: -57.274895506377 gnorm: 0.000723724527 xtb: 6.6.1 (8d0f1dd)
N           -5.75086595445174       -0.06162649443119        0.48598083230337
C           -4.62397774451131        0.03496566188615        0.26850381987734
C           -3.25421038773178        0.10719909707832        0.02921726647648
C           -2.51886492742184        1.24296095335080       -0.35148023049040
C           -1.17239212837185        0.90777482493395       -0.40281000747331
C           -0.17111126536217        1.89356895987872       -0.67481396530728
N           -0.47324899862325        2.84373588262711       -1.58601141962150
N            0.92152256081802        2.08003723975640        0.00675367402746
C            1.79449320023378        1.31865108134330        0.61568657575231
N            2.54110818617196        1.94165489861739        1.56616976954914
C            2.19872129814123        0.03171622790884        0.19273331146992
C            3.54157259883355       -0.39072360731304        0.14965466379843
N            4.66046362171398        0.29104532026452        0.58261517187969
N            3.66803452063490       -1.60931678562446       -0.40406685572082
C            2.43768386120490       -2.02268183460368       -0.68000081752839
C            1.44162564176497       -1.07568585671699       -0.35688607848057
C            0.05841044605173       -1.37445402948385       -0.33594201553174
N           -0.26640832590665       -2.68012030251571       -0.50622303798788
C           -1.04181397585425       -0.50474408658333       -0.11457732911648
C           -2.35753842232928       -0.96717468339902        0.15722210356428
N           -2.75653348591671       -2.26192234638727        0.48050939313112
H           -2.94003621898832        2.22327465577978       -0.48736411593757
H           -1.38593042929757        2.85566625048985       -2.00423340684725
H            0.12346991883524        3.64812356513996       -1.67196063979816
H            3.12054295907747        1.37718565199174        2.16290487251264
H            2.21393375620427        2.82914700064888        1.90860072470783
H            5.50706450338932       -0.11551828053349        0.20942336951535
H            4.61639249115813        1.29530522719467        0.47680808432201
H            2.32207933853383       -2.98963582847641       -1.13955025442794
H            0.45964050704181       -3.33641293065302       -0.72893328944116
H           -1.21815902111216       -2.91509280752733       -0.73845709471796
H           -3.72491315308344       -2.29440483417487        0.77549786570850
H           -2.14785605434784       -2.73431653376546        1.13649545763304
