31
 energy: -54.612961308612 gnorm: 0.000715718300 xtb: 6.6.1 (8d0f1dd)
N            2.94076585814020       -2.61664514459249        0.85553736606193
C            2.06049297457137       -1.97925567123783        0.47960432590160
C            0.90074592996417       -1.23945038203139        0.13544685573696
C           -0.23998429039164       -2.04127515051452       -0.04684329539993
N           -0.01578936193891       -3.39625852526986       -0.07460791726659
C           -1.59221102534983       -1.70916626840569       -0.28146212467347
C           -2.40387080674931       -0.60763297700916       -0.17451730829654
C           -3.79941315016891       -0.75034992690406       -0.34423456852323
C           -4.42929122094549        0.45527095862175       -0.07038055630797
N           -5.75713467756365        0.71881876418820       -0.14991273939816
C           -3.42950481090411        1.40647774335027        0.25292133694566
C           -2.17755404133277        0.81586296306035        0.17885764785792
C           -1.02323437243457        1.57880675214629        0.32135466705400
C            0.32651318183031        1.34747820603417        0.17517592339217
N            1.11074056137541        2.45964639210735        0.18178644521713
C            2.36255266601158        2.07509384096681        0.00034748481421
N            3.39506391905245        2.93218195267764       -0.06226518581915
C            2.46677555591664        0.64659501429972       -0.08376826410761
C            3.68089070108266        0.02433261843495       -0.35843652284146
N            4.73298669704054       -0.34889718174470       -0.64077806549473
C            1.16111821425852        0.14729885239435        0.03098988285309
H           -0.79422898646441       -4.02466865470381        0.01279361595683
H            0.89272218475365       -3.75246341192914        0.17052671475089
H           -2.16551033548880       -2.59780052432638       -0.53884182038988
H           -4.29255304976118       -1.66629667655651       -0.61378019834740
H           -6.10536602699405        1.56907166607690        0.25610265678340
H           -6.39933551023324       -0.05002762197205       -0.22909637626230
H           -3.61639923097019        2.43720169051473        0.49263172829217
H           -1.22019262639919        2.63077308942801        0.50307059419536
H            3.20228873029714        3.91700335119250       -0.08918892843738
H            4.30662016219458        2.59085013980276       -0.31209274004774
