35
 energy: -62.301843842161 gnorm: 0.000546390316 xtb: 6.6.1 (8d0f1dd)
N            6.22177137313046        1.40154917403914       -0.14770239773299
C            5.11570389074104        1.08666091764139       -0.17464101505355
C            3.76373053721494        0.74214815171020       -0.18510032833479
C            3.21031691060131       -0.48366472421819       -0.56277641391355
C            1.82026584788493       -0.46568002357463       -0.36574591189634
C            1.05100202534791       -1.63112611607846       -0.56380602018919
N            1.58291317472110       -2.57929183567926       -1.36841181858174
C           -0.13824716273760       -2.03925369319867        0.11961804241477
C           -0.16697154543884       -3.43126668824623        0.33869981574850
N           -0.18937826541298       -4.56785427073014        0.52911688607755
C           -1.29835971868329       -1.37344278592858        0.55263375645939
N           -2.18388416724179       -2.11885310663611        1.26203027630345
C           -1.76416598364610       -0.07336728714439        0.20323333564475
C           -3.13275761371110        0.21578797485769        0.07204287752082
N           -4.20512977128661       -0.64730251260616        0.10038929639085
C           -3.28885613691418        1.62238993366213       -0.11329280321602
C           -4.51705651301911        2.24953743152048       -0.32542603414711
N           -5.54925810941611        2.72230486637432       -0.51073490294502
C           -2.03447960275281        2.20183143180153       -0.05023287076233
C           -1.05709433198932        1.19011593051595        0.09966114759453
C            0.27713891474016        1.55060473292801        0.19384152391064
C            1.48002470411762        0.87216638687561        0.10073667349222
C            2.70988514198060        1.58996179267922        0.21511197208498
N            2.87888936269927        2.87546165597920        0.60320850152456
H            3.81454664218105       -1.32270720821913       -0.85890733514183
H            1.18693177846993       -3.50498617016822       -1.38839614500690
H            2.48936420157722       -2.44303996696951       -1.77839683830602
H           -2.97429785038546       -1.66718121772659        1.68798577043116
H           -1.93768958998072       -3.04784865706489        1.56086393429797
H           -5.05969720590103       -0.25000585437792       -0.26467565235473
H           -4.03190847898363       -1.59321526315774       -0.20713772771989
H           -1.82735291956427        3.25229248309711       -0.14040606232945
H            0.39767142245184        2.62564050189809        0.29519204170409
H            2.14276057144789        3.36217246037584        1.08287324989232
H            3.81924455325599        3.20780686216847        0.73370119983777
