26
 energy: -47.192845012735 gnorm: 0.000678193790 xtb: 6.6.1 (8d0f1dd)
N           -4.17292657988336        1.58638491338281       -0.05365531544210
C           -3.09942181172739        1.17912440859486       -0.03247767615601
C           -1.74235075885021        0.75421848349497       -0.01129652212949
C           -0.78882634940133        1.79638231432537        0.01055220534743
N           -1.30454961866129        3.05951766677662        0.01975772996837
C            0.61745082818837        1.75189456927075        0.03058784882157
C            1.60777939927963        0.79435785563569        0.03172743007188
C            2.95373967143213        1.18679302994785        0.03975175340661
C            3.78714727925770        0.06381292922505        0.00613497494232
N            5.13293467271153        0.06848750226593       -0.01648258344494
C            2.97270152959847       -1.08719369006630       -0.01938099415989
C            1.63322445463131       -0.71687968720259        0.00303441051837
N            0.72518936100118       -1.65568197605933        0.00799839496677
C           -0.57169827336526       -1.67148707598957        0.01529804798731
N           -1.18933800589028       -2.87380173033905        0.03326549310997
C           -2.48124465291675       -2.60694062280950        0.01300011497166
N           -2.82193449445683       -1.31532612149146       -0.01515993032940
C           -1.66090733651315       -0.64096945360864       -0.00876808852209
H           -0.69887829088708        3.85869999314859        0.00239052460530
H           -2.29927873389875        3.20123199667693       -0.01706160756920
H            1.03787205613103        2.75653021764015        0.04194258461853
H            3.29589635221648        2.20614912234445        0.06555410014005
H            5.64067691098238        0.93074831702688        0.06426323361349
H            5.63844526534384       -0.79828222694785        0.01094917570159
H            3.31301716504614       -2.10396823763077       -0.04645634948928
H           -3.22723298476844       -3.38087872791196        0.01819453775116
