26
 energy: -47.995729467105 gnorm: 0.000749155246 xtb: 6.6.1 (8d0f1dd)
N           -4.20909997031263        2.22447178827183       -0.00212971162461
C           -3.45743329120071        1.35451528536777       -0.00196568742935
C           -2.51813675009189        0.31914025992847       -0.00153770640388
C           -2.82112612134623       -1.04807015029790       -0.00224941112001
C           -1.63219031853106       -1.76540223478301       -0.00062455806861
C           -1.51738919415748       -3.16026678046905       -0.00035524629454
N           -1.44724978133685       -4.30598629204063       -0.00007730337306
C           -0.52282455639717       -0.85654305870550        0.00027925349422
N            0.67262834721428       -1.35313800395104        0.00025200195122
C            1.88144732212115       -0.84746156755185       -0.00110308091741
C            3.00070674517941       -1.69210643670708       -0.00371486428699
C            4.12351468558643       -0.86412251912719       -0.00578956411779
N            3.81163720753938        0.42621786545289       -0.00369054223200
C            2.45968237677071        0.52913535660856       -0.00095104737787
C            1.95841664076565        1.80823672280433        0.00337839916133
C            0.67509962236999        2.38431497716093        0.00707890939587
N            0.66847508596568        3.74708522674894        0.00927819111787
C           -0.59950849252271        1.79475936603897        0.00392917128312
C           -1.10724140178691        0.51157412809364        0.00048749616927
H           -3.81122226594492       -1.46705426968459       -0.00371332112798
H            2.97136815400835       -2.76289568493496       -0.00437528249163
H            5.15581932143292       -1.16670621631075       -0.00847650845113
H            2.76426944901384        2.53711837141467        0.00399736700418
H           -0.19575056660115        4.25833492249672        0.02825089412873
H            1.53033018804895        4.26195465234324        0.02666488422155
H           -1.39191750658699        2.54199888023263        0.00442574298946
