26
 energy: -52.018871787892 gnorm: 0.000807244362 xtb: 6.6.1 (8d0f1dd)
N           -4.48012819831182       -1.86205556446833        1.22464773185394
C           -3.64662694329629       -1.18203275281582        0.81841025629152
C           -2.68113810398643       -0.29041128664902        0.35315388791452
C           -2.88133403461152        1.10100617875050        0.20646508812857
N           -4.00162910289857        1.75896626828575        0.51861592786268
C           -1.69788145976278        1.68274111326264       -0.31374946239186
C           -0.72954235466252        0.70828097966692       -0.46709720834287
C            0.64028138505749        0.99203661683535       -0.61038119290749
C            0.94987355738185        2.36735718466623       -0.78169505330100
N            1.17662280957680        3.47602050858761       -0.96581451710522
C            1.76483127166825        0.20790025882853       -0.33543055301049
N            2.93195484648743        0.77610133733947       -0.03960315259504
C            3.68057834645973       -0.21705613438039        0.48801414346303
N            4.90511665246495        0.00519475436592        0.95231781258524
N            3.11001255003687       -1.43629162417541        0.52038976283145
C            1.92748143868292       -1.27304521078889       -0.06029819312394
N            1.23355059899295       -2.25919928347753       -0.54536539694169
C            0.02179088601722       -2.35856530139132       -0.98746539374163
N           -1.07088490742777       -1.79983536637104       -0.53013325229814
C           -1.40291800600230       -0.61075623479857       -0.16262990521194
H           -4.78512460447749        1.26210113350734        0.90834914157459
H           -4.08326446372953        2.74441682953346        0.33906246517394
H           -1.56169386965873        2.73439502165194       -0.48524371110487
H            5.30678462605785        0.92040771935724        0.85388318754466
H            5.42520770341150       -0.75677290763360        1.34877729366608
H           -0.14779762356993       -3.16157105928752       -1.70134700781227
