32
 energy: -54.326101615525 gnorm: 0.000742166335 xtb: 6.6.1 (8d0f1dd)
N           -2.96586142484799       -2.54432069226642        0.86795018407321
C           -2.06982826118327       -1.91321803612987        0.52016600999672
C           -0.89005451746383       -1.18745456043886        0.21194010843979
C            0.25348145415697       -2.01152149794166        0.12274018123279
N            0.03494772188017       -3.35453076075310        0.30760907690734
C            1.59271838380552       -1.70587229416280       -0.17600128525800
C            2.41172391044589       -0.59886952143176       -0.14626957485940
C            3.79109817147674       -0.74097213502302       -0.39274604777091
C            4.43917043460058        0.46619514371383       -0.14404130129231
N            5.78008517760317        0.69239038601521       -0.20243168647506
C            3.46792025289696        1.40698540698716        0.24998372701838
C            2.20422903961853        0.81637383132219        0.22701014797860
C            1.06501939898213        1.58072847630001        0.42776902788950
C           -0.29441291760471        1.38103286258983        0.26188772783252
C           -1.15671135650578        2.49710719253709        0.25262641640112
C           -2.44963857670619        2.09287036874801       -0.04425273555465
N           -3.53672521315743        2.87033153764420       -0.25015753021295
C           -2.44181443504172        0.67041534559482       -0.15878891333041
C           -3.59336477268781       -0.01416501440706       -0.54439760936658
N           -4.59342874235896       -0.44158504646293       -0.92383536954935
C           -1.13287707000324        0.19222430626653        0.05367338576859
H            0.77950721060017       -4.00385808233863        0.13233095306487
H           -0.90169209815734       -3.71420451314765        0.36702915734887
H            2.15730658646082       -2.60622903572327       -0.41106996049714
H            4.27143989550298       -1.65472326229131       -0.69196710624824
H            6.35056683803402        0.03052000268345       -0.69963367275002
H            6.09864454378172        1.64603546293870       -0.19668831974282
H            3.66735235274496        2.43442082095096        0.49527947938613
H            1.30256168900067        2.61673620770005        0.65681788657547
H           -0.84049998486740        3.51357212922148        0.39815355073989
H           -4.43381480955868        2.42969539402303       -0.35965446823451
H           -3.50479842274661        3.84506612428195       -0.01286793011135
