27
 energy: -57.309530466528 gnorm: 0.000651992840 xtb: 6.6.1 (8d0f1dd)
N            4.66219162941724        1.77701695507131        1.88499287992403
C            3.96940098569293        1.07709532795951        1.29505160806007
C            3.12297926313559        0.22647054273546        0.57714907691227
C            3.39824354386929       -1.10003250694087        0.20207821246190
C            2.30940885004877       -1.66505625172915       -0.46017333548107
C            2.24931508467803       -2.94417240048448       -1.02256383882185
N            2.21091670457020       -3.99171868079928       -1.48953922699897
C            1.23192163653446       -0.73054638629625       -0.41526758083514
N           -0.00574198706232       -1.03273570845627       -0.40573584492961
C           -1.14637732277533       -0.41292725480447       -0.17202569700513
C           -2.28832812823550       -1.13909449646780        0.18404711800565
C           -2.43550455463259       -2.51236058244685        0.37236143589571
N           -2.62821134063089       -3.62991596159132        0.55382426890495
C           -3.35164228498330       -0.18024726670554        0.31815775261078
N           -4.61737186049143       -0.45016866103002        0.62057298017870
N           -2.91891010833958        1.05995043761784        0.09358824546313
C           -1.60952762384431        1.00844654840518       -0.18626901647736
C           -0.93606222478010        2.19718354586088       -0.46426069954473
C           -1.75922113846041        3.34761985732405       -0.56981756764764
N           -2.39661767522546        4.29263737319529       -0.68117157970721
C            0.43652526023192        2.41703047925782       -0.69947095420802
N            1.45763097030345        1.76033275019647       -0.25663223002555
C            1.86144706026902        0.58717870710827        0.04610699026557
H            4.32692025717355       -1.60603942979153        0.39917299976479
H           -4.91467199941975       -1.39478364353878        0.79726743450018
H           -5.27874520194405        0.30737605125320        0.65637833572985
H            0.69928679210486        3.34383747070485       -1.20317224779439
