29
 energy: -51.199679209756 gnorm: 0.000976731988 xtb: 6.6.1 (8d0f1dd)
N            5.97283126103409        1.69436691427159        0.24723395625195
C            4.88459108384891        1.33731223212301        0.15766923453661
C            3.56382162925075        0.88813582881607        0.04485885559402
C            2.41439246936234        1.64961704713273        0.17269300347668
C            1.28091882373172        0.80967280980852        0.02233707873131
C           -0.00079348185757        1.34417635421893       -0.00565780137691
C           -1.28095876386860        0.80581892636389       -0.03021543096483
C           -2.41685350484270        1.64149989362654       -0.18597575334303
C           -3.56407370245063        0.87752446632098       -0.05324730160082
C           -4.88612563357561        1.32203864831258       -0.16935680622324
N           -5.97530165842424        1.67568399521330       -0.26061136034282
C           -3.17534749364516       -0.45230508535471        0.25155923992015
C           -1.79401834670665       -0.52291983255842        0.24877664165117
C           -1.05944342932554       -1.70325582832556        0.60502160280475
N           -1.60168148654562       -2.50846629867543        1.53615764978181
N            0.00428672375590       -2.14583428273710        0.00563167818904
C            1.06670251678860       -1.70407986919950       -0.59668885360842
N            1.61129180512712       -2.51380396667707       -1.52252969570515
C            1.79782935890471       -0.51932794128197       -0.24815961836817
C            3.17894837244164       -0.44473477545286       -0.25141968662214
H            2.37748936895005        2.70458331312200        0.37221027781080
H           -0.00235401160665        2.43109021136505       -0.00922840787999
H           -2.38300140632338        2.69522910709808       -0.39252506711862
H           -3.86058551720820       -1.26781637114915        0.40261347781391
H           -2.47229453448325       -2.26233473956044        1.97085392796215
H           -1.15320444236381       -3.37668088414771        1.77012724002967
H            2.48108777663045       -2.26797019353823       -1.95894946474140
H            1.16532447806785       -3.38482675603689       -1.75078384550197
H            3.86655245463348       -1.25917687799807       -0.39742653855632
