32
 energy: -54.337458238325 gnorm: 0.000928987450 xtb: 6.6.1 (8d0f1dd)
N            5.41327282736163        2.37438259335505        0.74396576665668
C            4.48782130956482        1.73834870584777        0.49734949795443
C            3.36706408938075        0.96546293097013        0.18367785018732
C            3.27409863238780       -0.42515489292693        0.26225562349678
C            1.96748581196982       -0.81772232064496       -0.07491228155072
C            1.62015636872415       -2.19432933464193       -0.18330912349379
N            2.65444609197848       -3.02712578914405       -0.44839490582123
C            0.39514177334805       -2.83197047656039        0.05035771724463
C           -0.87859352583209       -2.39839197712461        0.33916326327468
C           -1.58045218878143       -1.19730485864768        0.25526166107557
C           -2.94387206339612       -1.19507329178953        0.60158175024497
C           -3.50197210670332        0.04147288517053        0.29710193481008
C           -4.81186800614246        0.46797878731552        0.52316567295521
N           -5.87591559438664        0.86693295212475        0.70069188635242
C           -2.49321090876929        0.84734690570551       -0.28639739141710
N           -2.71368032683895        2.15184233103148       -0.69282335041720
C           -1.28705292214178        0.10975102099120       -0.32249523235573
C           -0.09370642584840        0.64408576099678       -0.84079474039835
N           -0.20920951281946        1.66037741887784       -1.71820090698997
C            1.24328230669255        0.38072298058331       -0.40637328974094
C            2.13540885790855        1.45112199280556       -0.27930053189311
H            4.06649160904813       -1.06148866967333        0.61417427508192
H            2.53610140860483       -4.02370062003724       -0.39111665664211
H            3.58037964935397       -2.65880202153529       -0.57639915980380
H            0.49598444476588       -3.91339510007262        0.08050408307948
H           -1.52573113042362       -3.20675657316052        0.66845124555702
H           -3.47492574709434       -2.02316427215616        1.03363013650439
H           -3.61525640798004        2.50325774516582       -0.39416021236971
H           -1.96668066732322        2.80309114971065       -0.49051531630572
H            0.62061897688020        2.06817873278091       -2.11320003138516
H           -1.10750680076218        1.88711688520480       -2.11178841445474
H            1.90501579917407        2.49418352247815       -0.40561631923640
