33
 energy: -58.056540568150 gnorm: 0.000836775797 xtb: 6.6.1 (8d0f1dd)
N            5.49609977558541       -1.32657466461443       -0.34710739789808
C            4.38517299833054       -1.09500797943705       -0.15752802724201
C            3.04662061444982       -0.76198216091663        0.04994885208027
C            1.99509423164599       -1.63309966799462        0.35054069522268
C            0.79104769791729       -0.91810275416751        0.37603162547284
C           -0.42378844709012       -1.65020827104877        0.44681217617104
N           -0.38367361390953       -2.81194716098907        1.13157259276415
C           -1.59632289548740       -1.42662578446875       -0.32215688692396
C           -2.28271342896212       -2.60106703832563       -0.68238889012360
N           -2.85193567072284       -3.55737700122915       -0.98062451902457
C           -2.21110319441375       -0.23269176359459       -0.74782685915563
N           -3.13795986600925       -0.31793269516928       -1.72378418482063
C           -2.11616138393994        1.01694210054279       -0.08165914096545
C           -3.27420209011931        1.76603796245230        0.18570915470583
N           -3.02710792073351        2.82152960942040        0.96177971762218
C           -1.71484113732956        2.84030035798702        1.16047797931677
C           -1.05718815348965        1.74132342131171        0.56431317583379
C            0.35225655313816        1.63364610758467        0.46612363778785
N            1.03519116910848        2.78253240648853        0.67050895892719
C            1.11843939189033        0.48418698827327        0.17497107855499
C            2.51960697568450        0.53889839863960       -0.05065527353435
N            3.29749844866801        1.65663734549783       -0.30853268361412
H            2.11274274533454       -2.69998055140613        0.41383607437820
H           -1.12488134615178       -3.48646978679786        1.02898731297418
H            0.46838129417812       -3.10014103966714        1.57974613652426
H           -3.71748971153888        0.48182841280468       -1.91403061734728
H           -3.43051952992432       -1.21821440655202       -2.07009530608290
H           -4.28847831744735        1.51888776241248       -0.07579603588042
H           -1.29327125564955        3.61122255678626        1.78288481353291
H            0.51827674843956        3.59950053212196        0.94642383778237
H            2.01775289100271        2.73720151446652        0.89335289083708
H            4.24636831922969        1.41494196545264       -0.56637435977964
H            2.88652971951723        2.32763937123081       -0.94393916899677
