28
 energy: -46.654433296532 gnorm: 0.000703561564 xtb: 6.6.1 (8d0f1dd)
N            5.58254075431381        1.10529047055200       -0.06147700371430
C            4.45402487472427        0.88270590886071       -0.03166324603654
C            3.09920192662639        0.55223189424432       -0.00382758119577
C            2.00815650815005        1.41175207935921        0.01660254595423
C            0.80844282783271        0.67165396587546        0.02659724378012
C           -0.39664559079212        1.35700004694400        0.03663107875098
C           -1.72936519881670        0.98292350205526        0.02732158697422
C           -2.74546995958300        1.96296530301348        0.01843308480440
N           -3.97477703302223        1.46296182213559       -0.00686658787216
C           -3.83057551643319        0.12516745181645       -0.01228965808556
N           -4.92668228090521       -0.65461740764677       -0.01157989267246
C           -2.45196505637474       -0.28097712542755        0.01364424036924
C           -2.08913091074139       -1.61146193095924        0.03663468091434
C           -0.87975013720914       -2.29986230566949        0.05820193023285
C            0.45410912751757       -1.93099029631390        0.04526057939307
C            1.17732797909104       -0.74224198317388        0.01945441492665
C            2.60139027996154       -0.78010183809486       -0.00428662735909
N            3.41374138650650       -1.85772278668384        0.00060225127958
H            2.06985369690948        2.48515918121168        0.01932591476635
H           -0.26762159069208        2.43623777306507        0.04514127430397
H           -2.59914929182797        3.02887492334622        0.02469046949023
H           -4.86511034318569       -1.64290928985470       -0.17496394991599
H           -5.81260989649854       -0.19390625651134       -0.12338341319233
H           -2.94149675407343       -2.28624398207117        0.04189945752527
H           -1.01589712951262       -3.37642479834916        0.08170504685272
H            1.10249161106054       -2.80347637765970        0.05979987524423
H            4.40315283921359       -1.71246693225369       -0.10337859175678
H            3.05166694106072       -2.78573994391001       -0.12301838036166
