28
 energy: -51.444410085011 gnorm: 0.000770599707 xtb: 6.6.1 (8d0f1dd)
N            4.39578304328136       -1.55418979505596       -0.88813855742829
C            3.50818851947752       -0.87561753814628       -0.61239293450712
C            2.46848559761776       -0.01050415074398       -0.28135788638549
C            2.60078818342624        1.38912676427057       -0.10930392718742
N            3.73560550491525        2.08740700901021       -0.26861366143404
C            1.34706611840069        1.90920691325890        0.25796230875590
C            0.39717142058097        0.88934181071995        0.26856917088391
C           -0.97818600281064        1.13787158678308        0.34967145236500
C           -1.31712429948141        2.49410832896968        0.62497731859772
N           -1.53333860655297        3.58826869983786        0.88886575916220
C           -2.10288617094002        0.36072110324317        0.05363156960365
N           -3.26489542086279        1.01604108525032       -0.05036602556653
C           -4.19719066595667        0.13758192269068       -0.45070270795637
C           -3.69110960013291       -1.13622422494869       -0.59911450951185
C           -2.31804454354159       -1.07807538861150       -0.25518252990731
C           -1.56186375307337       -2.20921098430934       -0.07395282213820
C           -0.21665811684519       -2.39988629002639        0.32852561182557
N            0.09179408857366       -3.62002716915756        0.85029089306056
N            0.82913071707994       -1.63289233119564        0.15913429618476
C            1.13184955860928       -0.38096872454268        0.00602542431953
H            4.57737203599064        1.62110285976068       -0.55848914566625
H            3.75103255542531        3.07775859467417       -0.10359893245807
H            1.14750179106080        2.94659744204638        0.45161731832327
H           -5.20524508444083        0.47186995042006       -0.61806945695885
H           -4.22715736309865       -2.01851097169100       -0.88993877484591
H           -2.10137712111486       -3.13747323557343       -0.23627936446182
H           -0.57312894396356       -4.37201307009154        0.82936832700603
H            1.06558029047255       -3.83677205603887        0.97947628052316
