28
 energy: -46.652604455701 gnorm: 0.000486603069 xtb: 6.6.1 (8d0f1dd)
N            5.66816045947153        1.13215108422417        0.34417860927473
C            4.55813560454595        0.87290874161546        0.19633833327707
C            3.21222186949056        0.54136300148025        0.01431745977486
C            2.16421711058770        1.41404620933639       -0.25036095184506
C            0.95510034154847        0.68549484163898       -0.30243839286610
C           -0.23501305377976        1.39537698865351       -0.45042032738986
C           -1.56249450262545        1.08814942088762       -0.26057633362343
C           -2.55960059063259        2.09238062514728       -0.31583178212835
N           -3.76207068301648        1.66237825432704        0.02748878359748
C           -3.62875045786705        0.35186672007721        0.31893719411419
N           -4.72295465536795       -0.36020721179721        0.66773643685479
C           -2.28905915535371       -0.11183991181342        0.14681085644038
C           -1.95269938804995       -1.44601903427892        0.26244428860020
C           -0.81355029398230       -2.19303052010248        0.02122316438501
C            0.53310722187486       -1.92106578998068       -0.23948822197772
N            1.26138241092692       -3.01627969353808       -0.56798915619025
C            1.29844660395946       -0.71433438017349       -0.13332157133289
C            2.67967339192841       -0.76300662418901        0.06255789415598
H            2.24830384475972        2.48018381634757       -0.35604723674481
H           -0.07229621313099        2.44615059768333       -0.67646734302693
H           -2.40747647442574        3.12358791101763       -0.58058975043073
H           -4.62515297695160       -1.24574392364987        1.13134240793362
H           -5.55651174273715        0.17385925976219        0.84507201021937
H           -2.80103397034762       -2.07222169255103        0.52671432703685
H           -1.00969988422449       -3.26237107225112        0.03553304366106
H            2.23281604217750       -2.93511417044731       -0.80458938787526
H            0.83126065136703       -3.92371846878668       -0.59996907264178
H            3.27572260385498       -1.62986061383965        0.29011552024751
