32
 energy: -54.340238847613 gnorm: 0.000378906992 xtb: 6.6.1 (8d0f1dd)
N            1.57471457544932        4.73186719439429        0.02376200188873
C            1.39570596466217        3.59666027408948        0.02056593278379
C            1.15253453424636        2.20139652194790        0.01379264485195
C            2.32636518876992        1.44333330536052        0.08369714754844
C            2.62808487279249        0.09827290664314        0.04998307477045
C            3.99732732077574       -0.29610070201662        0.07425057010990
C            4.10112399235128       -1.65983433393234       -0.01330739896160
C            2.79771053011858       -2.19048795383716       -0.09149422217506
N            2.53741921716379       -3.52310030456461       -0.17067522068476
C            1.84930728637650       -1.12520665252842       -0.02927576373809
C            0.48872326399575       -1.40228460041259        0.01917769213279
C           -0.68155295371635       -0.66918222880670        0.05019410386360
C           -1.93571162729279       -1.34728573444903        0.11404688806694
N           -2.15308532699309       -2.68275463482569        0.21560808272564
C           -2.98051217731251       -0.41068238710934       -0.00249586258093
C           -4.34077913211271       -0.70476484014253        0.01197833178982
N           -5.46495840852411       -0.95391129572961        0.03067394278590
C           -2.41036155751420        0.87439116044320       -0.11367305150592
N           -3.14785079510083        1.99393690963961       -0.22920154399510
C           -0.98575257469872        0.76178985942283       -0.05544679044226
C           -0.21314352320034        1.90340522715656       -0.07233091970762
H            3.21345540345866        2.06928411442417        0.15099908693272
H            4.81932845747906        0.39400052644009        0.13815553761118
H            5.00520559022072       -2.24053894906380       -0.03036824999157
H            1.64364393689263       -3.83067088731853       -0.51526647391044
H            3.31598298380454       -4.12494579198995       -0.38130800883331
H            0.29582101533229       -2.47166043784973        0.03518355889447
H           -3.10147875907961       -2.97653158423286        0.38524880459875
H           -1.43109270274306       -3.27505253657876        0.58834429884423
H           -2.72475343504207        2.89739225185459       -0.34021565648878
H           -4.14863143115399        1.91929235316134       -0.27643307877348
H           -0.80130521820579        2.81586486771044       -0.14322625311061
