26
 energy: -48.005971138080 gnorm: 0.000430453737 xtb: 6.6.1 (8d0f1dd)
N            1.46579491695889        4.15785115521237        0.00411851416203
C            1.65857652558510        3.02484444813132        0.00296996087842
C            1.85844705243292        1.64068615609453        0.00136465111045
C            3.08462239985362        0.99447446566072       -0.00034922589966
C            2.85837172183628       -0.39127628954052       -0.00171140321478
C            3.86392210743194       -1.36609194798230       -0.00332189925782
N            4.71155929089063       -2.13999923512167       -0.00581378763408
C            1.46541466629249       -0.65384034216980       -0.00106912022329
N            1.07988220418461       -1.90862836605849       -0.00218954047998
C           -0.05306072511888       -2.54790517667434       -0.00217004670117
C           -1.41205875863058       -2.20317784760241       -0.00104751572384
C           -2.11981462302798       -1.01755426408913        0.00033954312042
N           -3.46689508072814       -1.12056091343911       -0.00012144784617
C           -3.97170882873603        0.11341380507897        0.00097771332564
N           -5.29215980809621        0.33596839363467        0.00586291190409
C           -2.94294728554747        1.09641137636339        0.00244314231638
C           -1.73954669965724        0.41315854549146        0.00186449217026
C           -0.50788056714554        1.08465158164625        0.00236670016497
C            0.79725083257244        0.67174102544116        0.00100567418907
H            4.04903190558513        1.46967751787450       -0.00054134912870
H            0.11683960900139       -3.62444939731296       -0.00330601528706
H           -2.07928626331962       -3.05775475635894       -0.00150687683252
H           -5.66138664610452        1.26859741290811       -0.01442486908956
H           -5.91458614453931       -0.45221708977311       -0.00929072178975
H           -3.08333344189290        2.16018608962340        0.00368237532076
H           -0.62517807488102        2.16662257396194        0.00385230764589
