33
 energy: -57.275992655400 gnorm: 0.000617577787 xtb: 6.6.1 (8d0f1dd)
N            5.59619497978747       -0.57303321049765       -0.42711156853768
C            4.48563589995534       -0.34196913376012       -0.22750504859710
C            3.13001659300105       -0.10644781299698       -0.01420573387070
C            2.53683335678856        1.07844729529508        0.45340787072817
C            1.15653827383463        0.92032584335555        0.43944597458414
C            0.27400775764132        1.99748912794654        0.76782809544528
N            0.63170917005440        2.80457401636957        1.78816908238768
N           -0.74286437427811        2.38442959863969        0.05107455549022
C           -1.62185864478001        1.78808981317513       -0.71168194696379
N           -2.11899764340151        2.51544878419424       -1.73406814287769
C           -2.22985943545679        0.53537304676130       -0.42683916624257
C           -3.60021055975299        0.30580270766673       -0.54351382255612
N           -3.95934608696297       -0.89436388278390       -0.07374733406694
C           -2.83570891874124       -1.49535541646535        0.31747313251929
N           -2.88985515482601       -2.79810430568000        0.81854256473146
C           -1.68216994151776       -0.68164447039568        0.13059702126308
C           -0.35525656723327       -1.16719877113837        0.15922105673415
N           -0.21389822936642       -2.49518973662018        0.33496141826476
C            0.85626588077635       -0.43084816739074        0.02046212749901
C            2.10525044050546       -1.03736791087103       -0.26019688425328
N            2.33616612094608       -2.34620423142218       -0.69838150114989
H            3.07425474846381        1.97960757229833        0.68947422337836
H            0.13680588642975        3.66830188483905        1.93017582910476
H            1.51208603555503        2.65738102986702        2.24862188735402
H           -1.83524831412749        3.47487350250946       -1.83546806833129
H           -2.93817452463855        2.19098492046964       -2.21618414626106
H           -4.35555222900887        0.99618997372478       -0.87654936613005
H           -2.47726004668281       -2.88795876327302        1.74066050692127
H           -3.85597847860012       -3.10564548070089        0.83090614878051
H           -1.02612524491313       -3.08960561850640        0.26303532265977
H            0.71212155935178       -2.89009196326539        0.37318152458358
H            1.73604003880570       -2.63314841724465       -1.46242296643205
H            3.31165867179118       -2.48790574210141       -0.93400545916025
