29
 energy: -51.156529505374 gnorm: 0.000605643696 xtb: 6.6.1 (8d0f1dd)
N            4.57374844958637        1.30684869342331       -0.20500127945832
C            3.45722027697117        1.05106191025788       -0.10986015078640
C            2.06728633532963        0.77449455103949       -0.01821791112991
C            1.26675381053256        1.93313235389617        0.00584657223793
N            1.94950283216224        3.12578276714821        0.01721313858402
C           -0.13036533481072        2.10355978121253        0.07141484122660
C           -1.27710121992072        1.34479020909579        0.04646470142932
C           -2.52735386190513        2.00413130311036        0.08765400221053
C           -3.55511463564068        1.07487541136234        0.00213345049017
N           -4.88405100698797        1.32344727130868       -0.04358578832292
C           -2.96732686307030       -0.21114938340818       -0.08730984679269
C           -1.58483170480796       -0.09982543042722       -0.05024643496452
C           -0.76122739033866       -1.23755615526766       -0.06051707892594
C           -1.47508170556207       -2.47304342387833       -0.13063024802822
N           -2.10097174768238       -3.43093081983658       -0.19601138825927
C            0.60696003257151       -1.45518010791950        0.01340382337524
N            0.96916228210453       -2.76109922675881        0.05035183138687
C            2.28972182756972       -2.81128278602241        0.11194717798124
C            2.86544713867923       -1.54003096931327        0.10026459754815
C            1.81822852211257       -0.61190768893386        0.04264180596366
H            1.45024980872245        3.98359672104120       -0.13164084017599
H            2.94443804189875        3.13599866080800       -0.12598733185842
H           -0.37670460471899        3.16185119599886        0.13620419122978
H           -2.65368309617776        3.06838138382121        0.16345970042123
H           -5.52426225882613        0.55379155674862        0.04273931834096
H           -5.22174213275200        2.24046137887766        0.18931518149016
H           -3.51731566628146       -1.13044487945869       -0.16125697979369
H            2.79785029269648       -3.75719355592365        0.16317870902019
H            3.91458982144526       -1.32191710950263        0.13958479116021
