27
 energy: -52.528011483341 gnorm: 0.000848973134 xtb: 6.6.1 (8d0f1dd)
N           -1.20651765983686       -4.15905769835475        0.47307437631847
C           -1.49406656870727       -3.05883057880335        0.30978080774765
C           -1.83729909353481       -1.71729968490309        0.11671839668830
C           -3.04967842766584       -1.25911490613121       -0.42852957232494
C           -3.03404495877427        0.12957538293370       -0.48870328097437
C           -4.06408791860246        0.95167030098413       -0.95720526474857
N           -4.90924704288978        1.61848268997769       -1.35586682227179
C           -1.81499554394399        0.59719618140160        0.09768290071908
N           -1.67433182340198        1.80757034876968        0.52621426748799
C           -0.68676818277321        2.50528773800149        1.01926756953028
N            0.55225404094651        2.54709481665020        0.62833529712374
C            1.39435192207946        1.66020256849202        0.17507031558133
C            2.64211508556102        2.01690270724063       -0.35358254998765
C            3.47752155791883        0.90275879346970       -0.35354614084714
N            4.76012598290631        0.84148620867324       -0.73586333316221
C            2.72913164609357       -0.22167742261668        0.13472105854840
C            3.26286896856881       -1.50318088121851        0.26156714825971
N            3.75085392407973       -2.54041945438032        0.35669020307028
C            1.40819810065283        0.17861252167234        0.38946974658488
C            0.37631225928486       -0.74116678236874        0.54398284436223
C           -0.99099394868597       -0.61104610633726        0.37593969067715
H           -3.86014758671420       -1.88880858736390       -0.74895496149952
H           -0.98690708143349        3.30384827954592        1.69286657078890
H            2.91843176638829        3.01413657646161       -0.63480260181725
H            5.22967221390687        1.66173902516118       -1.07583037850078
H            5.27658220987544       -0.01595701023155       -0.63819958203266
H            0.71525588870152       -1.77253126702588        0.61363952287729
