31
 energy: -54.618412760150 gnorm: 0.000738658028 xtb: 6.6.1 (8d0f1dd)
N            5.88637175118925        0.49267352268447        0.03937935304011
C            4.73658992130019        0.50789685903658        0.02208642569486
C            3.34140825744372        0.46016998518714        0.00903973301653
C            2.44788144614301        1.52258261666624        0.06009715818544
C            1.12325341890956        1.03826812691192        0.03626582998234
C            0.08466781013355        1.95393388989071        0.06877404960067
C           -1.30617134211916        1.94055370372503        0.01373333680742
C           -1.80091529965499        3.26919798373535        0.01650992443597
N           -2.17703420296229        4.35635196070341        0.02735584312401
C           -2.32382360262793        0.94012045510081       -0.04774298669479
N           -3.57085620849863        1.44557922226181       -0.19107944884530
C           -2.23237807173837       -0.46759653121938        0.03704949280251
C           -3.38023671524181       -1.27023522903382        0.18059548836969
N           -3.13440045842690       -2.57819765238973        0.17457428503255
C           -1.81489304201866       -2.70552627534069        0.01045170700127
N           -1.26568884039450       -3.94555500514985       -0.01655885161461
C           -1.14351305640829       -1.43404677824393       -0.03968118026793
C            0.23518777327234       -1.40409787381940       -0.07962242593350
C            1.20315255839003       -0.41432409735537       -0.03337243706936
C            2.58726528152009       -0.74300136872038       -0.03858072038453
N            3.15862823024195       -1.96802615105919       -0.12007603463475
H            2.72537702031709        2.55992954419674        0.10871865351615
H            0.46258400460460        2.97337105672349        0.12693397484312
H           -4.36845804077987        0.84276008253891       -0.26008067768763
H           -3.71400139985639        2.44194945037356       -0.20017222220697
H           -4.40124838764407       -0.96360174987286        0.32813256199595
H           -0.39162356074165       -4.09070793086690       -0.49248934105432
H           -1.93711509605362       -4.69380426591008       -0.07935149284281
H            0.66404413839773       -2.40135292144740       -0.12741542957603
H            2.62207273221366       -2.79140448520055        0.09060084617622
H            4.15366179998938       -2.02445259520688        0.02347181928903
