35
 energy: -56.680227337832 gnorm: 0.000836730353 xtb: 6.6.1 (8d0f1dd)
N           -2.98274513728435       -3.67049040343503       -0.42899817674095
C           -2.32995494643332       -2.72908528739785       -0.30297597298427
C           -1.51174332101865       -1.59289778501954       -0.13467696055500
C           -0.19560523258693       -1.95618358085903        0.17586124886207
C            1.02896478472297       -1.33223487955239        0.21145823395030
C            2.20570409631302       -2.11420292994900        0.47860933520428
N            2.23215184860500       -3.41965612672664        0.88263318099326
C            3.32741636108440       -1.35527784044947        0.19527660456639
C            2.91566564303898       -0.09558117583872       -0.24943845391707
N            3.81284902335373        0.90334543332614       -0.58293698258420
C            1.49585990477918       -0.02001117543012       -0.22650751412218
C            0.79539758513923        1.15556885208439       -0.52078109077924
N            1.48671062387094        2.11228349459294       -1.22644597925885
C           -0.46023645758250        1.59529101489165       -0.00884864159483
C           -0.66167528320796        2.95037626679369        0.34433089156934
N            0.27514315458144        3.98577101008496        0.32095640212351
C           -1.98079987367825        3.12035813621880        0.78136153430540
C           -2.63835350384806        1.92103990019152        0.62858293950547
C           -1.73136718593917        0.93569015745134        0.16491563166841
C           -2.19252601318118       -0.35092692983068       -0.18591343530899
N           -3.50654850716238       -0.43010059387845       -0.53152451900014
H           -0.12709105453012       -3.02594368738866        0.36199694130839
H            3.12285750767001       -3.77084587821311        1.19242818142489
H            1.43392597025407       -3.78292536420467        1.37630319429432
H            4.34978989881122       -1.66910712972348        0.30848857326166
H            4.75698621894399        0.69376673209413       -0.28887463446164
H            3.52610753273138        1.84064596218803       -0.33712019871181
H            0.94175209145099        2.89629543420923       -1.54951588020051
H            2.19901886215934        1.77727477336954       -1.85480504264292
H            0.00198057742740        4.75536123471637        0.91764740068953
H            1.22498882705189        3.69139338491912        0.50432357881920
H           -2.39462460556973        4.03591546971294        1.16425267880576
H           -3.66110726970620        1.75179768038842        0.91820550992716
H           -3.96331047819080       -1.32691360115027       -0.56249317416325
H           -4.07259549396930        0.39695418121391       -0.48172815015406
