35
 energy: -62.300342222157 gnorm: 0.000872979791 xtb: 6.6.1 (8d0f1dd)
N           -5.94795181928351        2.23272002895449        0.39187197165089
C           -4.85995307634333        1.89333565786958        0.23729129311996
C           -3.55742186678193        1.42193672743745        0.06546685053251
C           -2.37690021784044        2.14348828082620        0.09390604971731
C           -1.28094809878821        1.26072748855817       -0.04491444366457
C            0.00038826913265        1.78412709144712       -0.08307240015758
C            1.28217651537147        1.25605589433113       -0.06388919403702
C            2.38237545539570        2.13124434483082       -0.19655781673430
C            3.56179400516107        1.41811972879954       -0.05477199401179
C            4.87119971291307        1.88756304867815       -0.17173739515584
N            5.96606350443516        2.22437691574181       -0.27497505741355
C            3.22601980531724        0.06395236267826        0.22389364731096
N            4.18411489395282       -0.90575696592520        0.42073607504553
C            1.81959994131514       -0.06499302695143        0.22162326989826
C            1.18649166421118       -1.29505059156714        0.52275059731643
N            1.90660096072212       -2.14584073501345        1.29191682795898
C            0.00172093881281       -1.84605268495132       -0.03827420546693
C            0.03906134732273       -3.25358427027980       -0.08406875471475
N            0.07912349016241       -4.40481701657101       -0.12341069228916
C           -1.20678453312608       -1.31013948080518       -0.54212524347631
N           -1.96863469345713       -2.16864953394184       -1.26444991687511
C           -1.82907403130966       -0.07320671597726       -0.22916235930235
C           -3.23083127614943        0.05274643822652       -0.15849260210291
N           -4.19390418010972       -0.92568088696876       -0.25450376940486
H           -2.29821582732489        3.20629159036225        0.22804497353396
H            0.00257147863049        2.86966637412106       -0.12036410302360
H            2.31153550966536        3.18500486104769       -0.39267141584813
H            3.95719781052043       -1.83778117906560        0.10376862428166
H            5.11422231752161       -0.60929593773389        0.15682630037581
H            1.54153054892570       -3.05404865571242        1.52568064658520
H            2.71718049471629       -1.80648559289192        1.78097138333661
H           -2.79245397345153       -1.82573019519359       -1.72763449664750
H           -1.60800468740043       -3.07164552899504       -1.52378874322776
H           -5.10660958163722       -0.62992906478393        0.06451505793470
H           -3.93565472040170       -1.85050153178647        0.05842730225342
