34
 energy: -56.989005591165 gnorm: 0.000762109896 xtb: 6.6.1 (8d0f1dd)
N            5.73415730257613       -0.04574923747713        0.46209952512368
C            4.60603427072086        0.04451815739763        0.24567554758561
C            3.23623966381645        0.11223036050483        0.00952894966094
C            2.50270725360211        1.23260439002263       -0.40964366642553
C            1.15417622986209        0.89380641694013       -0.44211864763254
C            0.14521974325677        1.86681454694554       -0.70699839347382
N            0.41600461441202        2.81889180175537       -1.62772864727480
N           -0.93282715629124        2.03850324680361        0.00264953118146
C           -1.78234011304461        1.27249604528201        0.63423006358039
N           -2.48763405107337        1.89471174295215        1.62295799294206
C           -2.22181140883535       -0.00434974457561        0.20613980141984
C           -3.57918091829387       -0.37755534133456        0.19838699322288
N           -4.65443588034531        0.36280474971240        0.66993473593483
C           -3.68948097272189       -1.64183040666962       -0.39918024166673
C           -2.42543922685676       -2.08707906132121       -0.70935322518858
C           -1.46182299242553       -1.10801587443011       -0.35181828498893
C           -0.07979583817662       -1.38483873882238       -0.31046635197126
N            0.27210835606832       -2.69043310745567       -0.46176837545935
C            1.02365788709868       -0.50610121403315       -0.10094765631584
C            2.33622584394334       -0.95789033307927        0.18055979874913
N            2.74269706357896       -2.24041203428563        0.54666384400878
H            2.92204225687400        2.20826030279815       -0.58068617475573
H           -0.18116560559178        3.62556285209912       -1.68790927629642
H            1.32700126259106        2.84879701560543       -2.04945643332025
H           -2.11749452598578        2.76417932386858        1.96978903476462
H           -3.00655660409567        1.31657981845409        2.26130610545731
H           -5.53455857986237        0.08116823174657        0.26049285901539
H           -4.51818348422501        1.36429831037886        0.64160331523192
H           -4.61230466118512       -2.16402396771753       -0.57744588600498
H           -2.23515171304173       -3.03073062528344       -1.19121631271351
H           -0.44109121169833       -3.36090127598582       -0.68280961753034
H            1.22340697171800       -2.90741753171997       -0.71085964520305
H            2.12536011178999       -2.70020649996769        1.20337979236988
H            3.70539759674218       -2.25441764821079        0.86055169047311
