34
 energy: -56.979198295638 gnorm: 0.000408039305 xtb: 6.6.1 (8d0f1dd)
N           -5.56453422811542       -0.61708141533730       -0.91122707404699
C           -4.49144320794158       -0.34244011404127       -0.59285262247813
C           -3.17810560890462       -0.05892993184079       -0.23275550185227
C           -2.65508642937821        1.18088335424542        0.17783399619122
C           -1.28585104664609        1.04329389013637        0.35419865550495
C           -0.43500371348378        2.13263304970048        0.73379228184116
N           -0.89265960722258        2.96833672280112        1.69575971317509
N            0.65672595152008        2.48549511008787        0.12510263842744
C            1.55907554395433        1.85855985655852       -0.58951839238107
C            2.09307076951266        0.59683600971958       -0.43946771620417
C            3.44317068969486        0.31234598273417       -0.82260702430801
N            4.27556037906621        1.14723684625606       -1.51690839449974
C            3.83126666618873       -0.87850783350431       -0.22485364810639
C            2.74452770267242       -1.40617961565718        0.47554281454349
N            2.79526288966769       -2.60719779801464        1.17192044722843
C            1.60682465283689       -0.57132879624435        0.29978533247983
C            0.28539331681589       -1.02585587137696        0.42977634709910
N            0.09829112371287       -2.30163806758233        0.86353183394313
C           -0.92609798311639       -0.33188048619376        0.11730109298070
C           -2.12448171782611       -0.99120542321627       -0.24037874226121
N           -2.28970803227672       -2.34935416036946       -0.55718530191994
H           -3.22185746681540        2.09172241425163        0.25643177693158
H           -1.84068821551785        2.86712391215432        2.01267355503536
H           -0.41916438713381        3.84380082373902        1.84090176599467
H            2.08125793577657        2.53760190565228       -1.26149832409475
H            3.85084044363915        1.81064675805431       -2.14326751769810
H            5.13487023301831        0.73877082792147       -1.84589750273079
H            4.80891847079798       -1.32325164118771       -0.28219256890217
H            2.32475633448236       -2.58571565565062        2.06703339447093
H            3.73692568213616       -2.96837210619845        1.24960277762673
H            0.84654153720844       -2.96649280381936        0.74635271473591
H           -0.84786786181694       -2.65139142214967        0.84290567475284
H           -3.22365040643722       -2.52781884170998       -0.90824168231051
H           -1.59457463736800       -2.69873718291867       -1.20654099206803
