31
 energy: -54.620378230565 gnorm: 0.000604715668 xtb: 6.6.1 (8d0f1dd)
N            5.79114782911395       -1.10066228917647       -0.17646848429080
C            4.65398382538183       -0.92797022399450       -0.15299386716513
C            3.28386389558852       -0.66756961785268       -0.11579935851316
C            2.23883435061677       -1.57954958359346       -0.25671064124899
C            1.00412447095647       -0.91932203678596       -0.15106375916011
C           -0.17061770314187       -1.66174799335412       -0.17003064137529
C           -1.51034369268555       -1.37251166898024       -0.03428964988315
C           -2.47185501260915       -2.43958959963987        0.07946078252253
N           -2.24004534459977       -3.76679933799973        0.10771216350737
N           -3.71866026183179       -1.98449353740953        0.24766865510877
C           -3.63644790801329       -0.65771619055686        0.19548815859010
C           -2.32718712499503       -0.16911821459884        0.02308973524572
C           -2.06810521746950        1.21257813392370       -0.09903011131332
N           -3.13761407192309        1.99292143970818       -0.38065363299357
C           -0.85295814519882        1.93945740621142        0.08084586604981
C           -1.02614851277669        3.34168576315801        0.16661339489246
N           -1.13096959224682        4.48499081121449        0.24514837641981
C            0.49935560459895        1.61752668830446        0.18558982827654
C            1.29101385178105        0.49378924913945        0.05727821607707
C            2.71715829597573        0.61424027147057        0.09074613261000
N            3.45571440392320        1.72621645473739        0.26277550736832
H            2.36609429230096       -2.63586472009719       -0.41329524153144
H            0.03394409775057       -2.72439739956297       -0.27068077122753
H           -1.36612769110123       -4.14623171695369       -0.20922232472041
H           -3.05073630371974       -4.36104011296747        0.10531858074394
H           -4.54232262637722       -0.09647704632234        0.34794412680666
H           -3.05174180906841        2.99593156257044       -0.36051660605923
H           -4.04906333404054        1.58890028091502       -0.49037121955303
H            1.08497161506182        2.51922547593146        0.35726121021724
H            3.03930151203120        2.62419099087912        0.42853173180494
H            4.45790877181770        1.65128017958314        0.26042896439288
