29
 energy: -46.371345944705 gnorm: 0.000503614218 xtb: 6.6.1 (8d0f1dd)
N            5.04704049479780       -1.58723946168619       -0.36373501784946
C            3.94794038795635       -1.28073459734484       -0.21626717637859
C            2.62992825959179       -0.84848249035787       -0.06336246871514
C            1.50136407216619       -1.62067723824337        0.17651812304243
C            0.35682225719220       -0.80005742727011        0.17698037380258
C           -0.87818492047749       -1.42460712333325        0.29713829867497
C           -2.19850001882583       -1.05022821822504        0.13896983076731
C           -3.22635957204428       -2.02511144250033        0.17995009015610
C           -4.44129908012958       -1.42980949722838       -0.10478932165075
C           -4.21824231725752       -0.07153023402832       -0.31769196279401
C           -2.84985547603786        0.21441122592927       -0.16629477763982
C           -2.39786756690594        1.53095864787509       -0.23721220381647
C           -1.20464960246761        2.17797977748628       -0.03230035429422
C            0.14740115601396        1.81816482773100        0.14992928387423
N            0.95102469621174        2.88994936172129        0.41042768434115
C            0.82057955187663        0.58062046217968        0.00988450746201
C            2.22031447174177        0.50535042210487       -0.16625898672700
N            3.12021751115733        1.53172617443041       -0.40569177448575
H            1.49629449385665       -2.68813019968308        0.29844484082316
H           -0.77355765613641       -2.49041914999131        0.48691111084576
H           -3.06624765656947       -3.06840723007724        0.38626517355616
H           -5.39411915076528       -1.92533504533542       -0.15238467866257
H           -4.97372138031054        0.65831322886043       -0.55045345700305
H           -3.21465741496324        2.22004905653513       -0.43759091444361
H           -1.31833092207314        3.25979418688613       -0.02383410598170
H            1.87438188815008        2.72606133631717        0.77789234625285
H            0.51638017868254        3.77053545488856        0.62984893654956
H            4.03719828028806        1.18925546662016       -0.66406334161751
H            2.79098501078139        2.26046983453965       -1.02417421668771
