30
 energy: -50.899163004014 gnorm: 0.000772583389 xtb: 6.6.1 (8d0f1dd)
N           -5.69016963978780       -1.97432801163997       -0.00540124226737
C           -4.64697780469961       -1.48943800813484        0.00548170746560
C           -3.40465679625013       -0.85437765986205        0.01087381951795
C           -2.14531312251649       -1.44488814193169        0.01835551379870
C           -1.14351485613216       -0.45572059049319        0.01218616841498
C            0.18424083556363       -0.86316940018578        0.01337349663720
C            1.41776601104538       -0.23948519259529        0.00701117846338
C            2.61670207210330       -1.01524443552398        0.00413491875745
N            2.74298239934386       -2.35569950844280        0.01272417471639
C            3.73057212463429       -0.13469143175897        0.00635647354127
C            5.06185656005355       -0.55278155069188        0.00089192675844
N            6.14440252781697       -0.94186942209886       -0.00585588399242
C            3.24330013864195        1.16838476393993        0.00850903038194
C            1.83538814734913        1.16198833869424        0.00764850063560
C            1.16678932701226        2.38051794573986        0.00687566614126
C           -0.15468295304862        2.79693930930250        0.00278879658187
C           -1.38394147915254        2.15342134836758       -0.00010814121640
C           -1.82388191052097        0.83802788071717        0.00234231982313
C           -3.22305282577155        0.55301654504226       -0.00129929489803
N           -4.25329709816361        1.42291097610383        0.01045748722118
H           -1.96835603919351       -2.50580700249737        0.02585208916888
H            0.25527902159611       -1.94824262973983        0.02155991142796
H            1.94613784076837       -2.96282454540902       -0.05159375298832
H            3.66240543188526       -2.75975711703619       -0.03530391249552
H            3.85619484221646        2.05170291336398        0.00934807469873
H            1.86334919427040        3.21449775298967        0.00774230708535
H           -0.25042765650844        3.87773641809792        0.00110003671432
H           -2.20471041604285        2.86586392371645       -0.00176914088554
H           -5.18976215132026        1.06458040183429       -0.06411891072103
H           -4.10880688229241        2.41027716603165       -0.10003931688690
