34
 energy: -56.969129943513 gnorm: 0.000735365472 xtb: 6.6.1 (8d0f1dd)
N           -1.00027318596209        4.60523411690130        0.28555726596581
C           -0.82281563247842        3.46908377110542        0.21487527726171
C           -0.60780993413375        2.08013428753084        0.11583849527199
C            0.66119849824657        1.76754856096219       -0.40273294350165
C            1.48717160469944        0.67473503743982       -0.33894142756025
C            2.88717735987921        0.85193777473755       -0.63992566271897
N            3.43493973183975        1.92102137656261       -1.28321794712131
C            3.60482492888431       -0.16892481900258       -0.04145682769565
C            2.70497128774801       -1.05036149600922        0.56724433019598
N            3.10439361294216       -2.17774345122423        1.26559652638148
C            1.37136641489115       -0.63665595161142        0.30593991401087
C            0.27066628705863       -1.49944188107135        0.36303077221603
N            0.48610883505215       -2.77979205623573        0.77497221062459
C           -1.07026334625089       -1.22919132567868       -0.03064481175226
C           -1.95242905911093       -2.23600969336734       -0.49442514889828
N           -1.65622926741167       -3.56624407621357       -0.81203985792115
N           -3.20530409129516       -1.79293945188907       -0.65102471878624
C           -3.20119126961266       -0.52591155896359       -0.24221693096406
C           -1.91959440895033       -0.07706812690434        0.11968210721585
C           -1.70305004398126        1.27404353401034        0.48558835437838
N           -2.73184581258822        1.88798946563486        1.11914505369914
H            1.14853896515112        2.65402650116339       -0.80176775467549
H            2.86151402135638        2.44610484244455       -1.92072330678625
H            4.41042285120655        1.85780804586900       -1.51887105602435
H            4.67536706977667       -0.26939060698455       -0.03293546940867
H            4.10056451213750       -2.19810690522787        1.43806526283498
H            2.56664681157406       -2.36528699073993        2.10092141989418
H           -0.29629058601577       -3.41191911542759        0.69171617290926
H            1.40912900240993       -3.17048966586244        0.67273683690420
H           -0.85383633476157       -3.66487764368238       -1.42362277230646
H           -2.47549296457382       -3.99486064571197       -1.22655563134161
H           -4.10446105015732        0.05485062737718       -0.31881944730296
H           -2.74924755628289        2.89331436451751        1.18603026764140
H           -3.58942159778493        1.38045417965230        1.25127581836279
