33
 energy: -58.065501050972 gnorm: 0.000590707381 xtb: 6.6.1 (8d0f1dd)
N            5.71510455456755       -1.34001136829503       -0.95316855705502
C            4.64884388873072       -1.04581778080076       -0.63821227111923
C            3.35517021217207       -0.69433540088970       -0.24713304464291
C            2.89946042733310        0.59823141432011        0.04025628928029
C            1.52737894616546        0.54329510439960        0.31987144980392
C            0.82355739621182        1.75077549217418        0.62182109576459
N            1.52898998070494        2.67225791524111        1.31145815851331
C           -0.43253904592401        2.14219841051857        0.12757573269415
C           -0.71611146676136        3.52130296156764        0.21597020431692
N           -0.94550497754346        4.64712798132041        0.28307237548712
C           -1.45532294577236        1.41885633992463       -0.51452404686567
C           -1.84265606978702        0.10726098199638       -0.47407753117766
C           -3.16269715299962       -0.26772484783078       -0.92134765786461
N           -3.99658194642846        0.45759327472864       -1.68640813080913
N           -3.56237027965869       -1.42549206547246       -0.39863032305932
C           -2.54023270613705       -1.88738738572008        0.34281113676105
N           -2.69420335736390       -3.08329963394369        1.00443675196052
C           -1.38582616585950       -1.06436136972314        0.27755819181148
C           -0.09402536947330       -1.50225856632744        0.57084848163069
N            0.05172504544497       -2.73700747301584        1.11588968411974
C            1.13349972548853       -0.83481675191924        0.26092514410264
C            2.28117172032235       -1.57292866851440       -0.06928644038248
H            3.49946782089713        1.48701465114464       -0.04767194458780
H            2.48069651658899        2.47208537875448        1.56671530332469
H            1.19275279781612        3.61942002329093        1.38557005303835
H           -2.15920843489958        2.07441709132511       -1.02116416991145
H           -4.87584736835838        0.03857675795891       -1.93237795391891
H           -3.65554867445837        1.22530636110963       -2.23505103625101
H           -2.38401327645395       -3.08695392535740        1.96670431273596
H           -3.63528621375378       -3.43907894572836        0.89415532608606
H            0.99312873340748       -3.08548110162500        1.19870978904411
H           -0.67936730038147       -3.41643520530326        0.96544021429685
H            2.33714586156798       -2.63154043350725       -0.25584356452201
