30
 energy: -50.093899346981 gnorm: 0.000962510115 xtb: 6.6.1 (8d0f1dd)
N            0.04418833391155       -4.18053708325097       -0.25703425751012
C            0.01730104695830       -3.03022188715530       -0.20750422622622
C            0.02568787824938       -1.61805510414680       -0.13994599114409
C            1.32718804297471       -1.15660896760432        0.06005649414895
C            1.99019590220129        0.05336653942941        0.05445034909096
C            3.41626213995467        0.10150013041253        0.17805056991276
N            4.25907350095381       -0.94199562340095        0.35593225948075
C            3.84412976640390        1.43264639384854        0.02915314857073
C            2.73584246028606        2.22241843149947       -0.16304280208673
C            1.55756621683862        1.43215126496339       -0.13853871034362
C            0.32146255757524        2.03235199374325       -0.21333898261923
C           -0.99255215104620        1.58580155940317       -0.11011025282465
C           -2.02891069036338        2.53716142274112       -0.01618579652358
N           -3.22733575495322        1.99557029810583        0.15999687245623
C           -3.04111194759729        0.66780826616208        0.13677127761103
N           -4.13824228861844       -0.15272250436092        0.30511568116369
C           -1.67494400562866        0.30360495799620       -0.05274443303298
C           -1.26690518073698       -1.02311945522573       -0.27023286690861
N           -2.25921649177920       -1.90431079063029       -0.56469263076257
H            2.00469484225045       -1.99982706371093        0.18761645205871
H            3.91287805909275       -1.84990704869551        0.60978381436814
H            5.22911497615376       -0.74985968532902        0.52935662923168
H            4.86766549413498        1.75839974683668        0.06765472035516
H            2.74128860662090        3.28909535602736       -0.29819903214627
H            0.37803290512081        3.11321812309857       -0.31353731323306
H           -1.91416896135028        3.60611515242034       -0.04069576177959
H           -3.99334932136914       -0.95462301286406        0.90465361738046
H           -4.94941443427019        0.39236460325840        0.56861520303296
H           -3.14666601630812       -1.54547599453109       -0.87853239289030
H           -2.01880427886532       -2.85473465893828       -0.79613428853215
