30
 energy: -54.888266746255 gnorm: 0.000768276132 xtb: 6.6.1 (8d0f1dd)
N           -4.02793724152488        2.74405318136698        0.00456206668501
C           -3.48026400635310        1.73148050819020        0.00437419412781
C           -2.89904942667743        0.46694817492208        0.00665586620021
C           -3.63148691131684       -0.74280720786908        0.02378707428400
N           -4.97356687529364       -0.83287520648102        0.02550026630754
C           -2.71823528638681       -1.80516387168303        0.02355448871566
C           -1.40622992977316       -1.32663299645971        0.00848896094014
C           -0.34632794670881       -2.22060129656239       -0.00303247888687
C            1.04955365624193       -2.17211922534120       -0.01252706633386
N            1.65169471860768       -3.39899529026611       -0.06220136663337
C            1.94681927175233       -1.06938206217543        0.01036834883634
C            3.32417113120666       -1.42282377672277        0.03470518706304
N            4.41814933051955       -1.77209079862672        0.06190873323939
C            1.79742294179863        0.31485933597531        0.01374479625676
N            2.94224848972831        1.01951881978312        0.02894214316491
C            2.62419818631124        2.32349406168258        0.01247613037162
N            3.58192823101438        3.26077844606699        0.03050975184773
C            1.22869195600387        2.52445429040498       -0.01207379960565
C            0.64097369986805        1.26439997304265       -0.00752224014230
N           -0.67000708956107        1.15299495775799       -0.01329089705278
C           -1.51051553979022        0.17027417244264       -0.00071016335204
H           -5.52813124067102        0.00465900505297        0.05834866911464
H           -5.42732284905451       -1.72655830911813        0.08039656654350
H           -2.99501146893245       -2.84463047202929        0.03198367582653
H           -0.70451770556435       -3.24898654681620       -0.00737800871261
H            2.65193407060259       -3.47592923937915       -0.00095170434778
H            1.09859478617734       -4.23368409838666        0.00375825839676
H            4.54186054190601        2.96487945927285        0.01903504902951
H            3.35042478518121        4.23512536790426       -0.02994943973695
H            0.70689857018838        3.45923455675144       -0.02656847314688
