29
 energy: -51.176335587340 gnorm: 0.000906560893 xtb: 6.6.1 (8d0f1dd)
N           -5.89241620954927        0.97003233303022       -0.44769397852563
C           -4.76723392600216        0.82148401360663       -0.26943518846401
C           -3.39884211112539        0.62740016770123       -0.05011423795847
C           -2.44049635417675        1.60918136217056        0.16867871298688
C           -1.16882434927579        1.00257237780618        0.27636731520279
C           -0.05395091673622        1.82620816690483        0.41511912730877
C            1.29926810295352        1.63091942424572        0.25750031549778
C            2.20586866848190        2.71652732933155        0.29293217935609
N            3.44406097690678        2.38748663973967       -0.03987816266910
C            3.42912000273706        1.06862971216593       -0.31208452654441
N            4.56438477386639        0.45780667688962       -0.67621895214688
C            2.12550806077032        0.48945996996320       -0.12832901511315
C            1.91062883552430       -0.86021641700826       -0.23717328230221
C            0.84996168216448       -1.72631216196046        0.06069444204569
C            1.28097500984346       -3.07424042181281        0.03152108065585
N            1.65282600054017       -4.16189475915896       -0.00865537004102
C           -0.52044139164509       -1.55917892145214        0.37851735119904
N           -1.13583796492163       -2.66519826506202        0.84367415242792
C           -1.37812856970069       -0.43058366162411        0.19289822203476
C           -2.74908008305870       -0.62126489709275       -0.00573255928810
H           -2.62420701407005        2.66710459220210        0.20745808215426
H           -0.31529156716279        2.86501373005727        0.59750267735972
H            1.96509539060166        3.73479580302114        0.54135200198318
H            4.59324210944114       -0.51002422355402       -0.93833663216171
H            5.39326711286277        1.01957478495061       -0.75408047002418
H            2.79695494799308       -1.41739240804845       -0.53474732291664
H           -2.11633612615354       -2.64582130076270        1.06238835911900
H           -0.64333067421754       -3.54285349683591        0.89133351780801
H           -3.25611138779212       -1.55379570761351       -0.18337927648376
