32
 energy: -54.338549399050 gnorm: 0.000926831177 xtb: 6.6.1 (8d0f1dd)
N           -5.69520643374998        0.15726887401737       -0.90171003274925
C           -4.58375706894542        0.16561627489824       -0.60717482035230
C           -3.23572347353301        0.17438529603481       -0.24053740333113
C           -2.40957168598761        1.29827208628205       -0.16588166855008
C           -1.10815253220999        0.88571348477524        0.16545117849594
C           -0.08052718817788        1.82669769964913        0.46334532519124
N           -0.53824485278300        2.98451306718964        0.97914550204081
C            1.30116211707137        1.72304583716084        0.20316934578316
C            2.16397467288345        2.83692389240830        0.30864929213254
C            3.37969361354744        2.54292249493474       -0.28266079661348
C            3.31698307958923        1.25451760477560       -0.78597258692504
C            2.06088439003328        0.68714693815715       -0.47418139404395
C            1.87129689877984       -0.69915293285512       -0.65064034532431
N            2.62805309642008       -1.31507253754012       -1.58152645739851
C            1.12525596996892       -1.58727593787739        0.18951292816732
C            1.76220454756523       -2.82593431498172        0.39358173643463
N            2.28359068239754       -3.83850694594301        0.56778914833163
C           -0.15737772825175       -1.48037441378150        0.73520687756698
N           -0.57647839798035       -2.45440676130414        1.57087016894193
C           -1.15582249806182       -0.53872999424051        0.34002933589363
C           -2.47450306442125       -0.94603449187664        0.12734862435467
H           -2.71907024137429        2.29646310427107       -0.42149097449820
H            0.06039237358103        3.78288899634398        1.08420425107814
H           -1.52683580285413        3.09754507072845        1.12120283038127
H            1.94002944962777        3.78683775162155        0.76011373326820
H            4.22890223012614        3.19850640664273       -0.33924571430577
H            4.15128487268795        0.74864621155053       -1.23862962800648
H            2.68631863208071       -2.32031094372305       -1.60185610024600
H            3.28557578420784       -0.78625660185837       -2.12682695826548
H           -1.54220837138879       -2.47278155794091        1.84948668882912
H           -0.00578773621948       -3.26732053941040        1.73898518027188
H           -2.84104431982723       -1.95730604530803        0.14009038144552
