32
 energy: -53.531268673934 gnorm: 0.000964236385 xtb: 6.6.1 (8d0f1dd)
N           -5.23546901342948       -1.20226819009771        0.70620397002911
C           -4.20357607749548       -0.75818720022673        0.45387380488893
C           -2.93432526672154       -0.26861082293966        0.15532016497456
C           -2.53398581551115        1.06428336299757        0.08471943996543
C           -1.15055045172033        1.12620340105262       -0.14981671026566
C           -0.52237233785010        2.38872844149791       -0.32985001737691
N           -1.33865954180879        3.37386465442533       -0.78592390433010
C            0.77014848082887        2.82134718038440        0.00597844190664
C            1.91558409529925        2.18610812876446        0.41716642876855
C            2.36461187021679        0.86781956428316        0.40640804904932
C            3.70118381288821        0.58686335068857        0.75618402183387
N            4.04273320219614       -0.67677638681777        0.54221714559005
C            2.96060810147827       -1.27469255229194        0.02041099055088
N            3.03366717554304       -2.62253003938585       -0.29114606270244
C            1.85504247478208       -0.38988451343847       -0.10716604459489
C            0.59784988541354       -0.79341930238509       -0.58235629604901
N            0.56694840614178       -1.95395711996144       -1.28499180493190
C           -0.67937749121030       -0.23787202896331       -0.27331701216992
C           -1.80294859028050       -1.07408085768881       -0.11222905769906
N           -1.86472055695577       -2.45965986441730       -0.16728767542656
H           -3.19192597042865        1.89132026805845        0.28379331544154
H           -1.04183655217802        4.33309299145133       -0.75721533709759
H           -2.29961825710928        3.17380784857393       -0.99585315311155
H            0.86096279267391        3.90369278178998       -0.02336506235620
H            2.68706604813619        2.86930649489564        0.76127734360652
H            4.41727909979786        1.28419345152371        1.15275719085212
H            3.91718488066891       -2.99913148354870        0.03078266427403
H            2.24929979504196       -3.17770720638743        0.02553148161234
H            1.43404144005494       -2.30522713794862       -1.65873579778484
H           -0.29312845430180       -2.21112877420314       -1.74049333853932
H           -2.72383254280111       -2.82306616222169        0.22506816886567
H           -1.04828528545901       -2.94239180476351        0.18129273572604
