32
 energy: -53.551928102255 gnorm: 0.000425540324 xtb: 6.6.1 (8d0f1dd)
N           -5.94308111922092        1.18955525702006       -0.43599760029792
C           -4.83226523452427        0.92690582796957       -0.28930253682702
C           -3.48910722575732        0.59562301848363       -0.10620837398483
C           -2.40017829103705        1.46394800800444       -0.17730072729275
C           -1.21404567068119        0.73537167226044        0.03028697315598
C            0.02670171765758        1.39232234679802        0.11161302841204
C            1.33611747710013        0.98845764720156        0.13624766609725
C            2.40788374930877        1.95365095884576        0.23886329487253
N            2.24686243482850        3.29032358316620        0.47709527154955
C            3.61177960426013        1.32497966609020        0.00122575985316
C            3.36425136387367       -0.03165331270773       -0.27604226969164
N            4.35002110789555       -0.93866517816072       -0.58365189246791
C            1.98330974100523       -0.28719250752834       -0.17015063956388
C            1.38811632216815       -1.53601248871796       -0.42958825493579
N            2.07554536351182       -2.42416528767176       -1.22590952742181
N            0.35768368106372       -2.07248791802040        0.17576998270121
C           -0.78797699407665       -1.73210520397664        0.67528989408717
N           -1.31576010217459       -2.58772640326946        1.57952030306787
C           -1.61019075412156       -0.62724067785008        0.27829478824377
C           -2.99744548986175       -0.68813019517504        0.20928839485389
H           -2.45601434859237        2.51943107677793       -0.37525354207135
H           -0.09903647478718        2.47179817144841        0.13249707588557
H            1.41113419813900        3.58349058279727        0.95480655378805
H            3.07923649051072        3.80278462673699        0.71686879498225
H            4.58304742650520        1.78539678835257        0.01804632204399
H            4.13804965904817       -1.90306353720072       -0.37396285690146
H            5.28048003376522       -0.65175553624549       -0.31909685787762
H            1.56191963699714       -3.25571253185724       -1.47383363786190
H            2.64926868354537       -2.02669866627332       -1.95192388069997
H           -0.82408459825058       -3.43427540282172        1.80642042946144
H           -2.25825160566673       -2.45583119670924        1.89821022910083
H           -3.60830564312826       -1.56833266747007        0.31461207754575
