28
 energy: -51.448493555721 gnorm: 0.000901772288 xtb: 6.6.1 (8d0f1dd)
N           -4.78014265228662       -1.71499368331901       -0.00932727198575
C           -3.92324463952086       -0.94732743483496       -0.00808778460746
C           -2.86264794712744       -0.03947565919331       -0.00551697955676
C           -2.98995884061875        1.35581114204128       -0.00561079248663
C           -1.72286424856721        1.92126701678126       -0.00169598429291
C           -1.43425681417478        3.28907725356103       -0.00031685184015
N           -1.21980742349312        4.41778780570617        0.00104847771621
C           -0.73415595084023        0.88053054855478        0.00033891952652
N            0.51122702557150        1.22129168752786        0.00239260146048
C            1.65700357238272        0.57213154200622        0.00232473066246
C            2.85248380553062        1.27990895772827        0.00050110717100
C            3.88989664360899        0.32046062177700       -0.00249584705546
N            5.20809304599853        0.56266738132485        0.00428067580803
N            3.41453991812786       -0.93299291464310       -0.00105558010627
C            2.06768876156774       -0.86609992789490        0.00201200066534
C            1.40229162491671       -2.07162309072055        0.00543905866194
C            0.05934079420217       -2.47715560021820        0.00768514492516
N           -0.12128224543403       -3.82956344101721        0.00258042513184
C           -1.13735292801734       -1.73865617504513        0.00259487971868
C           -1.48722771498866       -0.40620284360605       -0.00148172167272
H           -3.92058744255885        1.89469551491593       -0.00821925923620
H            2.95230004067454        2.34618148676280        0.00073163965375
H            5.84587345471947       -0.21222874865788       -0.03400301723189
H            5.55690085377923        1.50223566782330       -0.04291405108316
H            2.10673458875344       -2.89852974310928        0.00642745375589
H           -1.04368562931043       -4.22423801538107        0.04480858073002
H            0.66740935306837       -4.44878271192606        0.04690651317584
H           -2.01324455626357       -2.38607340664405        0.00161648279222
