28
 energy: -56.249998095073 gnorm: 0.000867331283 xtb: 6.6.1 (8d0f1dd)
N            5.11835153056537        0.71146291961583        1.48159851692970
C            4.19176598109791        0.17071378897421        1.06825216250435
C            3.04445303161210       -0.43738696961887        0.55580885633154
C            2.89873638989806       -1.76001053171548        0.18198399853283
C            1.59197162841237       -1.96692352218341       -0.30359226624576
C            1.09319921435713       -3.19669524886174       -0.74744904726572
N            0.72333841202623       -4.21813726378599       -1.11878987765908
C            0.85921136440536       -0.75966072887257       -0.23152805572295
N           -0.43332924982627       -0.77656838972128       -0.41224792997493
C           -1.38806380871218        0.08950973298294       -0.22295488613013
C           -2.73921681451514       -0.27656849216463       -0.09017132382043
C           -3.36273497372834       -1.49889799118914       -0.32059646265287
N           -3.95677667637643       -2.46872589317406       -0.48882223049491
C           -3.41018047811593        0.87937382588327        0.41597451720521
N           -4.69728259304538        0.94811710645317        0.74689197734229
N           -2.59550319458036        1.94095434655154        0.53792943151837
C           -1.39155700151917        1.56897794302793        0.10747261361007
N           -0.47695768984380        2.45479337931503       -0.13609038408655
C            0.79823545387329        2.50988721963430       -0.34935323592378
N            1.24207364900242        3.57998382329411       -1.03911710103351
C            1.81682711762605        1.63646706199017        0.18580290107515
C            1.83342127022129        0.28237719944403        0.23509764377361
H            3.65499664909965       -2.52088408932092        0.25679233815899
H           -5.06071028268642        1.81090583647500        1.11391975881429
H           -5.29752832538109        0.15045607992871        0.62385125438574
H            2.22381255785509        3.75485446649265       -1.15760376677326
H            0.57217043865061        4.24720944381383       -1.38237919652972
H            2.73175828792169        2.13965741762635        0.48230839393504
