32
 energy: -53.531388522917 gnorm: 0.000568646868 xtb: 6.6.1 (8d0f1dd)
N            0.28524473595094       -4.32521706165498       -0.66360523697606
C            0.22979436325514       -3.18888017446905       -0.48530774733342
C            0.13988286101660       -1.79725597118120       -0.26385146580233
C           -1.16153628480942       -1.41730718871886        0.07510311888882
C           -1.87216677638607       -0.23985000966505        0.17285158604937
C           -3.26990514028669       -0.28894401172052        0.50954456592163
N           -3.95765848846429       -1.38403347741182        0.94555381723017
C           -3.83722076689467        0.95606142151789        0.25874243433160
C           -2.84680463198462        1.79351650583117       -0.23076308929666
C           -1.60894966357002        1.12482363800858       -0.26171995190513
C           -0.41149545753806        1.77826262686918       -0.59653768403899
N           -0.50446344751701        2.93031892989513       -1.29961868754972
C            0.90575230571276        1.45714033112818       -0.16353788739741
C            1.81207895338647        2.47449702413609        0.16076024297159
N            2.99030493446779        2.01036458141339        0.58749154117996
C            2.92634282455692        0.68459643266817        0.47915363126564
N            4.03560181766233       -0.08367012123228        0.80946320818606
C            1.64811898201577        0.23458039132030        0.03423904695408
C            1.38443479922605       -1.11022677510553       -0.28866526747307
N            2.46979256523926       -1.88268078197402       -0.53487194485624
H           -1.78547867957258       -2.29425525646838        0.23898517425686
H           -4.88819877648400       -1.22145691185570        1.29131116523085
H           -3.45232738167009       -2.12899435839449        1.39423783500119
H           -4.86495947927831        1.22192651323548        0.42539085518448
H           -3.01635279044126        2.83054658241274       -0.46363297921058
H           -1.40270244184696        3.33765038992400       -1.48876235119764
H            0.31723564822995        3.49639562549901       -1.41929105791874
H            1.62731671366975        3.53436015477962        0.19868855946655
H            3.82646270785154       -0.89890103307812        1.37227134641430
H            4.74059150658339        0.50029709228384        1.24212352795061
H            2.35386497080085       -2.85326367504562       -0.77423519186356
H            3.36763247411414       -1.44311606865063       -0.65294732346281
