31
 energy: -60.205483998465 gnorm: 0.000832322712 xtb: 6.6.1 (8d0f1dd)
N            5.33228255915922        1.35946859399069        0.04902947291033
C            4.43829899393706        0.63653239809040        0.03200424146296
C            3.32243917021384       -0.20418586576708        0.01150267796653
C            3.34203764118112       -1.59134876020169       -0.01729193685427
C            2.01934142040512       -2.05900788487090       -0.03008762439918
C            1.64611646018849       -3.40794388411454       -0.05790920358415
N            1.38114387117476       -4.52441264971658       -0.08526270752652
C            1.12682789428592       -0.95579731922210       -0.01023106037838
N           -0.15749467870536       -1.18235648437736       -0.00196476386002
C           -1.24016365910770       -0.47052679544716        0.00729763922559
C           -2.47995723392607       -1.16098060821498        0.02548020063853
C           -2.67040884414693       -2.54327739956414        0.04939190815038
N           -2.92171441288081       -3.66443230540257        0.06984282003797
C           -3.53740633423497       -0.22312757795006        0.01377419256165
N           -4.84297899802706       -0.51916924211992        0.02696214250947
C           -2.96922417608325        1.06384954395991       -0.01256784541028
C           -1.57841413290984        0.99056648348417       -0.01142630515706
C           -0.80156654098775        2.16758829040145       -0.02241202024631
C           -1.60903225168793        3.33682130912932       -0.06410222515207
N           -2.24563882774176        4.29191435884309       -0.10631405357202
C            0.58165583098880        2.45831753349706        0.00823279253384
N            0.91378328129800        3.78024106546192        0.02579525940470
C            1.71277954383507        1.60990968694034        0.02564727058109
C            1.96260708266931        0.26379754429527        0.01164776195233
H            4.22211670377986       -2.20854351091173       -0.02709195251637
H           -5.13924827270012       -1.48026869542742        0.04543495365940
H           -5.53419640132747        0.20971307683676        0.01277048415991
H           -3.54856793997761        1.96876156751830       -0.02684981482499
H            0.20786443224807        4.49531333590535       -0.00302242354183
H            1.87812630424058        4.05979231899664        0.01928342014916
H            2.63435685083958        2.18982854825770        0.04572828201956
