32
 energy: -54.340505546545 gnorm: 0.000996536295 xtb: 6.6.1 (8d0f1dd)
N           -5.97392029931618        2.05070205564556        0.43790960488724
C           -4.95368790501054        1.54907691880627        0.26525084772809
C           -3.71859484510573        0.93251497621398        0.05148873732734
C           -2.49683177325080        1.56437983964428       -0.16700188677333
C           -1.48366745656590        0.59070520665305       -0.27900288000730
C           -0.16177294813210        1.02985127355872       -0.43043731411960
C            1.07605607982399        0.46482404565516       -0.26929587686039
C            2.25745456093802        1.27175956741398       -0.35124129885186
N            2.33955671686220        2.56253326281750       -0.73345939678101
C            3.35725320095310        0.51781252182456        0.09199626034803
C            4.67146152768148        0.96781609442118        0.19008951637239
N            5.75831196487265        1.33797628373131        0.27488081230503
C            2.90460096199706       -0.77910144156620        0.42656804153977
N            3.73472702168473       -1.75692827237658        0.85924805015830
C            1.51048446737961       -0.87164443151801        0.16275135083478
C            0.87024667078575       -2.09580421607139        0.21923270204976
C           -0.38530347629365       -2.58462311196301       -0.10106640370538
C           -1.63742852648740       -2.03088120579411       -0.36982419303099
N           -2.56986898061624       -2.92508605434169       -0.78230015257604
C           -2.12808266544191       -0.69810150064844       -0.19317172260945
C           -3.49018077503172       -0.45508546439907        0.00974313949039
H           -2.34475944938994        2.62829743527620       -0.20345288077342
H           -0.12868705480860        2.09866416275708       -0.62615774359637
H            1.56291042733311        3.01819828092011       -1.17711910407697
H            3.24637922305178        2.99036369524779       -0.80168264392598
H            4.67701432749257       -1.49899779026278        1.09865759111108
H            3.36012127250119       -2.58512124155033        1.28619016467747
H            1.54652803987791       -2.90113840692018        0.49269380837695
H           -0.40806615192257       -3.67083611137331       -0.14121951337263
H           -2.35122281244968       -3.90376671250711       -0.83472285501020
H           -3.50450819319904       -2.62618975875668       -0.99200874379023
H           -4.26247561341303       -1.18446098843747        0.18413459095368
