31
 energy: -49.812986785037 gnorm: 0.000406381054 xtb: 6.6.1 (8d0f1dd)
N            5.44996308155131        0.99745847319222        0.61200876219413
C            4.35841630456508        0.72285209854312        0.37474046690891
C            3.03803316317258        0.38394103090480        0.07262715195967
C            2.47237632827323       -0.89362461704509        0.17102709882391
C            1.11503448792525       -0.81700907026945       -0.16273870298304
C            0.31914413864955       -1.98399214679584       -0.36978980163604
N            1.03496117691654       -3.09504987118163       -0.69074502183062
C           -1.05267112410483       -2.17306425032209       -0.29522094216272
C           -2.13990500901667       -1.41705784415656        0.15190538150802
N           -3.27454260835597       -2.14699039142037        0.32732203721805
C           -2.27998355463856       -0.02787958864248        0.40735291104066
C           -3.39607827711617        0.49817421760770        1.08853219763669
C           -3.42342498080536        1.87628795023247        0.94004879640972
C           -2.36918467523204        2.24338343059403        0.12083299896826
C           -1.60147295200185        1.09970496429845       -0.18816109031737
C           -0.35709989765240        1.24279885993484       -0.83699026277668
N           -0.22249979857060        2.27709131925385       -1.68828015673985
C            0.84163271174528        0.55369630316255       -0.50388422011465
C            2.04884433076640        1.25777268539395       -0.39255704154318
H            3.00403107306809       -1.75966890533303        0.52483857002065
H            0.59663475402539       -3.99798960679494       -0.72541322853895
H            2.03460354366341       -3.04093014861311       -0.75388409152577
H           -1.33580493703155       -3.20035402470278       -0.51898809594008
H           -4.12378479132548       -1.69415345092499        0.60844147802236
H           -3.25325976610427       -3.14952868013585        0.27982572629473
H           -4.09277983686905       -0.05454122830376        1.69504866340569
H           -4.13737408164669        2.54503850698176        1.38537517475810
H           -2.11437670897167        3.25966588524448       -0.12498376200846
H            0.69348943816343        2.53667998296798       -2.01294209253729
H           -0.98486535727336        2.91994282722806       -1.81827363618503
H            2.18913393103217        2.31684805170174       -0.52031611252941
