36
 energy: -60.425370768250 gnorm: 0.000550353605 xtb: 6.6.1 (8d0f1dd)
N           -5.40720369365798       -0.87237444910234        0.56374350370092
C           -4.29664968367157       -0.63601412087324        0.36217355029237
C           -2.95402186594449       -0.35042226774768        0.15001012984402
C           -2.43086775201661        0.87043433295044       -0.33282523362750
N           -3.21444910125736        1.93684731300679       -0.72799763837923
C           -1.03069380689555        0.79257879960645       -0.30105306284451
C           -0.20308501811097        1.91134244790966       -0.56210988312117
N           -0.66365323904368        2.85592690052563       -1.44189562720181
N            0.83108369403917        2.28615429116278        0.14088436759817
C            1.79367313143163        1.69499457291598        0.79524424186198
N            2.33677413214519        2.40091218167628        1.81759607429241
C            2.44217224107245        0.49836498782354        0.39011033833650
C            3.83635318487147        0.37741890829224        0.37102889239180
C            4.17709401256881       -0.82713088694433       -0.23133144161753
C            3.00596990346274       -1.50523963487168       -0.54212946223917
N            2.96982482701565       -2.78118596129672       -1.14369688854314
C            1.88454622429559       -0.71475809401395       -0.15692590304963
C            0.56983660628245       -1.23629165582678       -0.02231823992324
N            0.48963144971547       -2.58795777023974       -0.02562963456906
C           -0.66068339505082       -0.54998380837372        0.13683442907404
C           -1.87737918143777       -1.21189087902718        0.42780001834390
N           -2.05775155534859       -2.51537486679384        0.88913149085958
H           -2.79082333118917        2.84591827960772       -0.60618613641108
H           -4.16424051227790        1.88559359117481       -0.38597550913909
H           -1.28163112073497        2.54383964609774       -2.17187578767623
H           -0.02064917032598        3.59702299938683       -1.66941034909955
H            3.22553544556655        2.10990681920604        2.18371942200122
H            2.04288163778589        3.35294476005733        1.95495848653041
H            4.53696082714958        1.13465871507895        0.67881845359836
H            5.17439846504749       -1.17905681633923       -0.42868608332989
H            2.35700388365526       -2.81404830325785       -1.95146443435219
H            3.90283332870312       -3.07445201623199       -1.40841441985937
H           -0.40127327073824       -3.03433205379206       -0.16461758702929
H            1.34148555847052       -3.11723254796826       -0.12744288194561
H           -3.02127381112324       -2.69033126052939        1.14819390109225
H           -1.41828939775305       -2.78303715684965        1.62657387374002
