35
 energy: -61.521972286431 gnorm: 0.000522970222 xtb: 6.6.1 (8d0f1dd)
N           -5.97342296274407       -2.04279985889352        0.46714301713757
C           -4.90047223005321       -1.64989346657767        0.32540692939528
C           -3.62421097579625       -1.11651295437330        0.15926689068210
C           -2.40294929227712       -1.77414133461399        0.24928060754791
C           -1.35324571080390       -0.85090180678305        0.06727080218520
C           -0.03443395329269       -1.30576458333488        0.00258678333580
C            1.20964007729176       -0.71230960803610       -0.06602383888302
C            2.39408178680828       -1.51095841812643       -0.19384159260844
N            2.45359759312770       -2.85398512855534       -0.38348302267282
C            3.51739921940693       -0.68786448414887       -0.04686582415833
C            4.84722083647863       -1.07811935278558       -0.16044468839022
N            5.95069357453954       -1.38896259721905       -0.27546939102044
C            3.06774709527696        0.63654698632686        0.20551098560156
N            3.91884020446980        1.68493552782061        0.43231134597794
C            1.66559629697749        0.65461749426328        0.17348516587050
C            0.88860760549410        1.80241471323925        0.45365260046796
N            1.46704707518123        2.79177889597042        1.21059011956673
N           -0.24208906872768        2.15422594298476       -0.09250193810418
C           -1.34624416032061        1.65544729750178       -0.55964922396591
N           -2.05898033395519        2.50743258068202       -1.35599111060299
C           -1.97321041680151        0.43627074114034       -0.18287341754146
C           -3.36229561085368        0.25151562884971       -0.13589916959585
N           -4.34855514957803        1.18715235663597       -0.34980663660037
H           -2.27840973196358       -2.82537914821963        0.43652471108814
H            0.00921586409183       -2.39134222038224        0.02749921305122
H            1.64751460425886       -3.33761155440966       -0.73920312499664
H            3.35276158615572       -3.24974770041406       -0.60161456297327
H            4.87739278492509        1.52030587348666        0.16174858975699
H            3.56617705274416        2.60534434917751        0.21736535120073
H            2.15561849414148        2.50927534895776        1.88833935017104
H            0.85198916989909        3.54290536990334        1.48160048911621
H           -1.56363078813791        3.30775053747888       -1.71427058385808
H           -2.78503472050922        2.11530062328911       -1.93220355356106
H           -4.10553728809078        2.14337641989167       -0.13697002457916
H           -5.26136689006224        0.90886244607206       -0.01812237483967
