28
 energy: -52.249199784054 gnorm: 0.000573692358 xtb: 6.6.1 (8d0f1dd)
N           -2.60908640170857        3.97755962213835       -0.00359748612072
C           -2.60766998671259        2.82843222868429       -0.00307247667688
C           -2.57047629567784        1.43004730988127       -0.00119249884839
C           -3.67779536714379        0.58622969086812       -0.00117473877301
C           -3.22506336648080       -0.73686486323760        0.00069671888941
C           -4.04882591741084       -1.86965624051407        0.00130189292742
N           -4.74960740981594       -2.77859819712293        0.00226176785704
C           -1.80156531332521       -0.75940667959847        0.00221393597581
N           -1.20918924829838       -1.92698922601840        0.00537694300297
C            0.01822611829467       -2.36103274609521        0.00707764299655
C            1.29754638646849       -1.78549404323758        0.00426241724982
C            1.79470112517118       -0.49592127895708        0.00074253857963
C            3.19995177975290       -0.27800244559401       -0.00095977392756
C            4.19141755138719       -1.25972088794193       -0.00035783112446
N            5.04387550215325       -2.03160606972981        0.00275354134921
C            3.46458123297122        1.10943410262611       -0.00329840896749
N            4.67954015107173        1.68043354059619       -0.00614257617448
C            2.22214182293000        1.77108145581357       -0.00346053771344
C            1.18181518486705        0.84341943592677       -0.00109436858387
C           -0.14353627013761        1.28396336157872       -0.00092973556881
C           -1.36762126129520        0.65579975232242        0.00053512254637
H           -4.70667848215463        0.89764793210693       -0.00239693222490
H            0.03882931752067       -3.45027282994933        0.01106168039391
H            2.08477038777473       -2.53438353460121        0.00540582986026
H            4.77445696130325        2.67983926140452       -0.00459859368949
H            5.50604909585818        1.10840895794893       -0.00311286129774
H            2.09603759379741        2.83840215119986       -0.00516948949426
H           -0.21860476736057        2.36933998220156       -0.00289758164292
