33
 energy: -57.270846536638 gnorm: 0.000760377916 xtb: 6.6.1 (8d0f1dd)
N            5.42431060827273       -1.51291129688232        0.94967358967685
C            4.35872284069093       -1.18980001345936        0.65446715251180
C            3.08211631936448       -0.76036768379202        0.30367302145860
C            1.91230960690450       -1.52054142001524        0.27992779863620
C            0.82291864591479       -0.69831317759253       -0.05785142472419
C           -0.47183606083030       -1.23367858799502       -0.31684838141550
N           -0.48970264961176       -2.55266800038804       -0.66544003732281
C           -1.72038526671971       -0.59501524594777       -0.21852526380213
C           -2.96578859852831       -1.26349134066214       -0.33807796986445
N           -3.22144188335313       -2.50276423111056       -0.88856388832892
N           -3.98721146050480       -0.58771356894230        0.21615531145241
C           -3.47546503483624        0.54714144703623        0.69634234945792
N           -4.28776555405506        1.48296290031845        1.24627860185878
C           -2.07915398495634        0.67206485382145        0.41396018340217
C           -1.40189053876067        1.86420123686879        0.56306126842830
N           -0.37527381372672        2.33433114372230       -0.09537335207101
C            0.68439779758362        1.82395914893567       -0.65356020477428
N            1.33016463527692        2.64845748351624       -1.52133564835279
C            1.36224037024557        0.62628591406656       -0.26871717686917
C            2.74876727554431        0.56286539426100       -0.08169317544848
N            3.67001786944204        1.58083118970033       -0.23945963700482
H            1.88192083956753       -2.56005021472643        0.55802383597072
H           -1.32065402398720       -3.08415268728179       -0.45088000840596
H            0.38846594563177       -3.04231081940746       -0.62346332146012
H           -2.79307486042106       -2.66186317403345       -1.79056062877970
H           -4.21473735481172       -2.69601233183080       -0.88699500127257
H           -5.22047548394279        1.17137994621122        1.45928089932546
H           -3.88483716708521        2.17304636930837        1.85612396708621
H           -1.87465269040686        2.62517093346021        1.18265955838746
H            0.84593353740100        3.47060735275427       -1.83956605268271
H            2.08434443822483        2.28023412782464       -2.07365339294828
H            3.30958165907826        2.51402196212636       -0.09934297085469
H            4.54609727639091        1.41168875143492        0.23485430052786
