37
 energy: -65.741238213370 gnorm: 0.000789036884 xtb: 6.6.1 (8d0f1dd)
N           -0.37031513618215        4.74733301813293       -0.49337505801855
C           -0.33769038548657        3.60246504610212       -0.37746541353820
C           -0.30341548155189        2.20006618657739       -0.23208941448067
C            0.86601553437394        1.75366434558524        0.40259983176709
C            1.56481494882398        0.57181150730798        0.38978372549650
C            2.92824561485488        0.57415526496532        0.84150713414338
N            3.52081561780100        1.49469265570808        1.62618777011589
C            3.59444545002399       -0.50506052220766        0.24349631209564
C            4.95047790047677       -0.80108289080596        0.35345623751403
N            6.07081156660495       -1.05498624772839        0.43030395346138
C            2.65697346280884       -1.23898145609593       -0.52393469075891
N            3.00931530439816       -2.35218907763909       -1.25114768442509
C            1.36786850859841       -0.68084864488342       -0.35024874101074
C            0.18261863176188       -1.39403107936325       -0.57272147928361
N            0.29206384003330       -2.64627266164712       -1.10225456878222
C           -1.14621113065463       -1.02810226917321       -0.20554044160438
C           -2.06577463863599       -2.01674945689809        0.17604804108439
C           -3.31883888510425       -1.43494505602332        0.37896760043292
C           -4.47512455236047       -2.06035399866811        0.84015030709561
N           -5.44497483398126       -2.54364618834827        1.22878377516437
C           -3.21730742558313       -0.06457590970745        0.05340300320518
N           -4.29027272216180        0.80873547827717        0.10197663800139
C           -1.87291232105178        0.21686141778220       -0.27889991835912
C           -1.46967721666504        1.52651729361091       -0.65258875314960
N           -2.39439281331497        2.26445645601453       -1.30826740678173
H            1.40709257092349        2.57662904700985        0.86381742324355
H            4.49301604140490        1.38780803631671        1.85609339217906
H            2.97944716178781        2.17449753069806        2.12850424224125
H            4.00772315772140       -2.51285845314635       -1.28387950376800
H            2.55907600837332       -2.45078697052800       -2.15002336020342
H           -0.55731284808432       -3.18608487455314       -1.14380410397125
H            1.14395009835415       -3.16177283641381       -0.94009996330171
H           -1.85336877069977       -3.05041665757165        0.38664898492699
H           -5.07972098374697        0.43140026629812        0.60944480562407
H           -4.07210946340041        1.75840599553632        0.37140555887891
H           -2.21646608247785        3.23148902008462       -1.52380861202227
H           -3.23569547458408        1.82648371758591       -1.64099936911299
