33
 energy: -53.241839197499 gnorm: 0.000786409552 xtb: 6.6.1 (8d0f1dd)
N            2.55372546826873        4.20069501513921        0.22868414225956
C            1.89269488355820        3.26241114534195        0.15896191365087
C            1.09538469400013        2.09757317139831        0.07249578977265
C           -0.27193992622298        2.36325022538519       -0.01233407135008
C           -1.40866719258893        1.58968168913592       -0.12468189993686
C           -2.64674839364147        2.24825895522124       -0.38876496596785
C           -3.65229873209011        1.32727963004197       -0.46312294538268
C           -3.10003573152679        0.05544340306390       -0.19040044950433
N           -3.87125692994088       -1.09542720232738       -0.18484730385243
C           -1.71034334471445        0.17900626284431        0.02808254040464
C           -0.91803421429023       -0.93630023967197        0.42590726176975
N           -1.63192821594886       -1.92696503124571        1.06518835084292
C            0.42057024300044       -1.25178203322772        0.14171778345849
C            0.87882161832662       -2.59892989056695        0.09931750877416
N            0.13515947113034       -3.75442648374584        0.24801924966636
C            2.24630982046347       -2.62967285070694       -0.18698941864922
C            2.70238854427089       -1.32928637869760       -0.29997277915184
N            4.00391273021691       -0.98494580932455       -0.51918295802524
C            1.59926884918205       -0.42210069692034       -0.10712788155795
C            1.85857305640694        0.92581390904706       -0.03080024842117
H           -0.48450033094657        3.42907874681743       -0.05600317933530
H           -2.74424892167923        3.30952204470805       -0.52766706862255
H           -4.68919299352594        1.50875697703385       -0.68179039925102
H           -4.75440527550447       -0.98127243826998       -0.66208128898117
H           -3.38943390449542       -1.94389907342320       -0.44593812612578
H           -1.09092946700338       -2.57100784592384        1.62050664110411
H           -2.50846452299849       -1.63907739477743        1.47135927972645
H            0.61882439884119       -4.57893180206573       -0.07897471941755
H           -0.82144376619990       -3.70354921876621       -0.07138064804107
H            2.83441607450961       -3.52154886298827       -0.30816716062049
H            4.20892793207798       -0.07165351742254       -0.88649399063975
H            4.61829703528664       -1.72247135369991       -0.81968581028627
H            2.91971626037368        1.15916411989441       -0.07881122870847
