33
 energy: -57.275851354023 gnorm: 0.000982193785 xtb: 6.6.1 (8d0f1dd)
N            5.41666490151806        1.19905179463086        1.01399265650705
C            4.32345432038702        0.96375764475346        0.73905269635221
C            3.01072263214947        0.63915334878510        0.40682815888231
C            1.88115164991204        1.44600788997811        0.54685301473931
C            0.73734535342745        0.72770223221202        0.15941177411444
C           -0.52655382809548        1.35785594064913       -0.01980280861566
N           -0.49364906197640        2.70728484101764       -0.14292800087614
C           -1.80823556328163        0.77113407560794       -0.08969964266867
C           -3.01537378390979        1.50021853569287       -0.29995453432395
N           -3.15365384351206        2.82255393866079       -0.71577692144022
N           -4.10491177012181        0.78420426946331       -0.02135145978075
C           -3.67292505957002       -0.41151970052341        0.39451005623998
C           -2.28340904321594       -0.52069744527504        0.35429186539379
C           -1.58979739688676       -1.73356748056026        0.61072696144720
N           -2.10040935861309       -2.56795211634775        1.54123609458950
N           -0.60587075059701       -2.20506170591130       -0.10892626023534
C            0.45164688164522       -1.71444348632930       -0.69052666075791
N            1.01398059799081       -2.50732007808758       -1.63898780121072
C            1.19972067635106       -0.58486966345847       -0.24766586409197
C            2.59620029919858       -0.60497525213386       -0.12885445494240
N            3.46034603021658       -1.63340203838295       -0.45905985966722
H            1.91809630131724        2.44131414363204        0.95429671695047
H           -1.34758438204482        3.22199369700526        0.01802068649169
H            0.38439793730139        3.17939601822445       -0.01671213214282
H           -4.13897959831820        3.04618624815686       -0.79525852044674
H           -2.66216828042245        3.03059765829549       -1.57726261544991
H           -4.38561677784860       -1.18175517364923        0.63332030556905
H           -2.97584552001620       -2.34278280037615        1.97885435663257
H           -1.73909552372473       -3.50365117249542        1.61229889324892
H            0.47065624621120       -3.27503719818365       -1.99591465651157
H            1.75034504349246       -2.12884388445944       -2.20949091072474
H            4.36838989943265       -1.54882095455182       -0.02273120880671
H            3.07074434100475       -2.56309258043927       -0.39063219216439
