34
 energy: -57.771830378830 gnorm: 0.000935212848 xtb: 6.6.1 (8d0f1dd)
N            1.09128736407511        4.73474915374718       -0.33571705132882
C            0.89793869296678        3.60402276809793       -0.25683413789074
C            0.66699560737625        2.21170772292137       -0.15743646799764
C            1.85181907115358        1.47563118919386        0.03478000629293
C            2.17647645033949        0.15045702398849        0.15771015141270
C            3.53764231374673       -0.21188546866329        0.49370930668357
N            4.54546473778995        0.64984330636628        0.79263243615516
C            3.66822180286780       -1.58446838894920        0.43421220084481
C            2.44145331096511       -2.13366047926317        0.03809886024996
N            2.24823957762427       -3.48858858732212       -0.08702307397669
C            1.48020437093528       -1.09996526721463       -0.13528267194819
C            0.17601477913493       -1.36815489752027       -0.58184097904180
N            0.01567780964785       -2.55016611621220       -1.25791426194253
C           -1.04787828382214       -0.69505662746777       -0.28933540311483
C           -2.23572838220058       -1.42503901202500       -0.22086985038823
C           -3.31114624079483       -0.57667009920570        0.09172808043128
C           -4.63580623156618       -0.94879936306240        0.30535498854735
N           -5.73711532357540       -1.22877833883020        0.49165274955265
C           -2.81027087802562        0.73381053722237        0.16905720693806
N           -3.58127200574998        1.82723885270726        0.38929479122259
C           -1.39333743713956        0.69433971691235       -0.04990537461454
C           -0.68300359899748        1.87982494333490       -0.12365173413717
H            2.70446403336296        2.14207114865015        0.14103677355557
H            5.38871807413764        0.25456746410299        1.17160454750523
H            4.32571012801178        1.58660568406725        1.08410134242751
H            4.55394890258744       -2.14879635548481        0.66229562725228
H            2.96977639349715       -4.04629009778392        0.34630159996563
H            1.31201894855662       -3.82287772150995        0.09151900670700
H            0.82788429625750       -2.93914050357769       -1.70690807648549
H           -0.86262070016221       -2.69585638005341       -1.72482278788985
H           -2.34015919210559       -2.49308845711012       -0.29691983941480
H           -3.16108265357990        2.70064382723322        0.65366534987566
H           -4.53711959847230        1.67446307561855        0.66308932192600
H           -1.31573429763765        2.76451938019384       -0.12462580337202
