34
 energy: -56.975570876935 gnorm: 0.000828183739 xtb: 6.6.1 (8d0f1dd)
N           -0.57050299571919        4.52870801748173        0.12309650818248
C           -0.44994834741311        3.38228512922110        0.10087525172318
C           -0.26948936983958        1.98391402612395        0.05959295514230
C            1.06527932277512        1.67511885016349       -0.22291073753364
C            1.83018341695887        0.53614529639412       -0.14897273581194
C            3.26034555747411        0.57613498596796       -0.27784793087035
N            4.03073479691105        1.65341637609022       -0.53756976768656
N            3.83617451779337       -0.60427374045401       -0.02759463897861
C            2.83221660023897       -1.45722790446761        0.23971063425934
N            3.11793854886829       -2.76288852151514        0.49163093021086
C            1.54601495502404       -0.85289880901548        0.15429635055379
C            0.38482815099936       -1.60539638578280        0.17689886686657
C           -0.96043845977304       -1.32849188437535        0.01586687135210
C           -1.87737095104967       -2.41890823887966       -0.16607257486638
N           -1.56120924600982       -3.75320369953581       -0.20024260926793
C           -3.16419796341321       -1.92312500105980       -0.28662904219661
C           -3.11470241870390       -0.53543678912699       -0.14807650005074
N           -4.23926295586948        0.25421547735115       -0.24835408809590
C           -1.76320142210961       -0.11514827942902        0.04764791332684
C           -1.45145428487448        1.23115473548917        0.31526923251005
N           -2.50707676739620        1.99706295395051        0.75788495261087
H            1.63917374400039        2.57136873726389       -0.45012856721936
H            3.62249371791272        2.47992544644951       -0.93606468177739
H            5.00641137199673        1.47741146877563       -0.70206198565958
H            4.09289858545787       -2.94893733580265        0.66268872146383
H            2.46325004173364       -3.29042476235423        1.04456695359959
H            0.58756775431792       -2.66766899523494        0.27981564552271
H           -0.63224801544219       -4.00179207473431       -0.49920015585375
H           -2.28563308525074       -4.35302703277092       -0.56152381984843
H           -4.05292242424824       -2.49962786315408       -0.47050746623870
H           -4.08582256471049        1.19277669295183       -0.59076099025060
H           -5.02242409607735       -0.21404528898626       -0.68112144301444
H           -2.30727983508705        2.94677218408450        1.02965415410700
H           -3.23691853157443        1.52752417712022        1.26640659988857
