37
 energy: -64.154493519560 gnorm: 0.000850928233 xtb: 6.6.1 (8d0f1dd)
N           -5.60986826277709        0.76699463495386        0.84410520412998
C           -4.51412802501055        0.56538858324124        0.54603006913449
C           -3.18692538683133        0.32030658132175        0.22087149633735
C           -2.66588274974869       -0.89265919085919       -0.28526289186849
N           -3.44422418515513       -1.98522744639847       -0.60884501515153
C           -1.27054611165522       -0.77314108855585       -0.36551761432620
C           -0.43173960446347       -1.86579947665311       -0.70657768358226
N           -0.93475341781842       -2.80337188916706       -1.57174739456614
N            0.65870524968944       -2.22856277800841       -0.09385957933450
C            1.61837369430025       -1.64610460111965        0.57979332280612
N            2.27139235773669       -2.47156141570999        1.46109194769413
C            2.20094897040644       -0.39897479856041        0.28702151675468
C            3.58751437625503       -0.14894909682062        0.34084677900959
N            4.57953085005028       -0.98134305795540        0.80632845742135
N            3.90611242905865        1.05210147330610       -0.16629129169610
C            2.75476204377835        1.63110106270994       -0.51685200395827
N            2.78576035932477        2.91760211796965       -1.04371122025341
C            1.61939186653550        0.81570325432354       -0.26104621640016
C            0.29590585905197        1.29927260585117       -0.22121631607964
N            0.14286947804465        2.62934364531781       -0.44867898955447
C           -0.91050621998611        0.58333474597041        0.01922135355786
C           -2.11750130717793        1.21940907999102        0.38656815365692
N           -2.29245155579240        2.52911080941429        0.84446461114275
H           -2.98089141783387       -2.87988972957183       -0.53622768017953
H           -4.36357764285260       -1.96703920674401       -0.18990531575384
H           -0.29410300776023       -3.52540144205321       -1.86014518315310
H           -1.61049276511495       -2.49065832064108       -2.24896567012909
H            1.77963168780424       -3.31398057472234        1.71367263006386
H            2.81722274520833       -2.02928845562894        2.18124865841081
H            4.40236252184071       -1.96769528897325        0.67610507539918
H            5.49468973034358       -0.68544871964933        0.49705075380288
H            3.74764941183962        3.21283622441070       -1.16196842429762
H            2.25750988597154        3.01796915759324       -1.90197358235605
H            0.93826004101882        3.23712522811004       -0.33307919295523
H           -0.78536809141069        3.01697848086289       -0.40930435728894
H           -1.60866695565691        2.81755113029745        1.53334846888735
H           -3.23587255571301        2.68097137924585        1.18087036597496
