26
 energy: -53.574112350729 gnorm: 0.000781343238 xtb: 6.6.1 (8d0f1dd)
N           -1.09435393455720       -4.55969631618481       -0.12169793222139
C           -0.88940655962250       -3.43425695047877       -0.08270686735423
C           -0.72113818973951       -2.01246052959335       -0.04219760808205
C           -1.98572052750970       -1.40654080600488       -0.05163200063790
C           -2.43903261600858       -0.09976003227504        0.00495868105915
C           -3.86185365970313        0.01553242562857        0.01411835708101
N           -5.00561213739623        0.05138545934086        0.02065820142512
C           -1.79643600720192        1.14567511161757        0.04938357440547
N           -2.57121192909799        2.24142757956505        0.11150925457462
C           -1.73366877930585        3.27349276301952        0.09636631872820
N           -0.44709369426321        2.95253418274861        0.01335824878051
C           -0.40507884929579        1.60758960642564       -0.00869298313285
C            0.86907952261850        1.01626463359971       -0.06918326520942
C            1.85809037002658        2.03853523913865       -0.21685005258866
N            2.60891080156493        2.88554666169822       -0.38620167185992
C            1.31758497548440       -0.29724357048985       -0.00857354639029
C            2.70381073050310       -0.60713261176152        0.04012778850873
C            3.82330367250430        0.23762423281553        0.09695629849436
N            4.82457749381698        0.79334446736856        0.17110723623492
C            2.86946617560893       -2.00246078007940        0.08838860604225
C            1.62467504282652       -2.59438473723588        0.05741017766511
C            0.61507630958432       -1.60588359208896        0.00757756951256
H           -2.79521110609980       -2.13167010168807       -0.09360153410188
H           -2.07114676462538        4.29059964595747        0.14455672116881
H            3.81712269171970       -2.50501388528475        0.14170091100423
H            1.44460455266825       -3.65283732425817        0.07650934899371
