37
 energy: -60.115425319012 gnorm: 0.000926425713 xtb: 6.6.1 (8d0f1dd)
N           -1.24630715076989       -4.45684191893371       -0.81718253720515
C           -0.98584002900335       -3.36199491441929       -0.56501629325788
C           -0.63140836830503       -2.03071371265105       -0.26775607763250
C            0.72242540347111       -1.94172260783207        0.08212137069296
C            1.64386797375887       -0.93268114530392        0.21956159306562
C            3.00336335046501       -1.25631414087481        0.56950032812204
N            3.46046278892708       -2.48666779526629        0.95724863374979
C            3.79183395827809       -0.13727352994861        0.39242010059629
C            2.98371323080832        0.90756979004124       -0.07758246496021
N            3.48707193648959        2.16926733303304       -0.33693260730026
C            1.63874054090254        0.46868567074209       -0.16993548739139
C            0.58585322882405        1.32065386003822       -0.55163569616727
N            0.96834324543913        2.44794416799429       -1.25858475207132
C           -0.76384480723337        1.31431666510863       -0.12713250951165
C           -1.44274174706792        2.53579639685896        0.12464590846050
N           -0.94406245698779        3.83020448847500        0.01403781102546
C           -2.72935389879315        2.26388089093970        0.58606455047883
C           -2.92566257804147        0.89328751391209        0.55183960566105
N           -4.12256188992726        0.28392770884444        0.91655545421979
C           -1.72558344676584        0.25249021023458        0.11503259425665
C           -1.71078511072037       -1.10980213223933       -0.23686144437943
N           -2.93867410110033       -1.67905204784221       -0.45453530944223
H            1.15430760124469       -2.93153212563997        0.21607798514933
H            4.38799685044035       -2.51061093331797        1.34655722280964
H            2.80444412533554       -3.12170079105218        1.38058842633957
H            4.84712785295701       -0.06464420977280        0.58602201824045
H            2.84988352617558        2.93361560832155       -0.16248957762754
H            4.40374926429704        2.31773769354665        0.06108874865552
H            0.21399753425149        2.94291903252405       -1.70893225647355
H            1.79905760495695        2.33794577591612       -1.81852716367581
H            0.04793382677338        3.91615894615735        0.18739737084949
H           -1.48497243695728        4.49428230533504        0.55104727096998
H           -3.44577635032250        2.99686795929244        0.91194475586456
H           -4.01338582657246       -0.62121859208682        1.35367747705408
H           -4.71523960555186        0.89948956801887        1.45670343670877
H           -2.96762288933981       -2.63051201759455       -0.78208386773957
H           -3.70534045643216       -1.07620623066189       -0.70051527513604
