27
 energy: -53.301568772509 gnorm: 0.000614897314 xtb: 6.6.1 (8d0f1dd)
N            4.94056877703232        0.14681217595124        0.43864337031720
C            3.80760686161528        0.09524122931203        0.28149981178731
C            2.39071021005742        0.10267426484693        0.08891302149290
C            1.94271676866025        1.40643175554675       -0.13147731049983
C            0.68689026696870        1.99912794011553       -0.19594200742823
C            0.75302423261894        3.41514644428490       -0.37858607182132
N            0.87868566357150        4.53890650065635       -0.55479609962080
C           -0.62685332474028        1.54840790810704       -0.02477493092693
N           -1.55300330217082        2.52658023288119        0.10989641669725
C           -2.72528646666260        1.96387843606667        0.29777846493106
C           -2.64344555288092        0.55329977915084        0.22303873483763
C           -3.73698393019183       -0.28748614795934        0.45419372072288
N           -4.67424336434999       -0.89945068457746        0.70908013395947
C           -1.27754790943580        0.24280912236505        0.01615499447121
C           -0.81445230017063       -1.06790315803447       -0.21741959576277
C           -1.85735945493815       -1.96609684170029       -0.60143578152528
N           -2.66207909634865       -2.67403180916833       -1.00491929960492
C            0.43571616167356       -1.66863676063825       -0.14914419503960
C            0.54629358746035       -3.08086925333287       -0.21364015601674
C            1.84920021996046       -3.45926797763546        0.05592838265462
C            2.61298430541350       -2.31044476309759        0.25331923240414
C            1.80520341938608       -1.16836607201197        0.11109674222804
H            2.75315309480072        2.12653879359229       -0.21152006649686
H           -3.60794063669960        2.54832266916399        0.47774858418905
H           -0.27298483465909       -3.74993351751607       -0.39808168418003
H            2.21389748814560       -4.46810021432029        0.10173146408214
H            3.66720150128364       -2.29379943984840        0.45902275824850
