26
 energy: -43.205902644669 gnorm: 0.000848555442 xtb: 6.6.1 (8d0f1dd)
N            5.36888932902075       -1.10082911292403        0.08450739555237
C            4.25012294681742       -0.84870785420264        0.02095400280019
C            2.89054124895962       -0.52517942761770       -0.06249955539796
C            1.82931690003963       -1.41132421174517       -0.20362822744870
C            0.61600558990743       -0.69107018051334       -0.19489296375719
C           -0.57089601663573       -1.41462174197057       -0.25618178371951
C           -1.89856598566679       -1.10496202192314       -0.06272168028310
C           -2.90433029207252       -2.10765048428705       -0.06340647575264
N           -4.10184432952925       -1.63499352084229        0.24316033964479
C           -3.94767542123515       -0.32235487485112        0.45728791892364
C           -2.62273134960971        0.11013399465539        0.28492959701060
C           -2.27982013262012        1.45575459630871        0.39482616937100
C           -1.14982424977722        2.19374984565512        0.14881944853093
C            0.19702720702565        1.92215846508968       -0.17277031979747
N            0.89166154631406        3.02750741488243       -0.52463051450974
C            0.96526602312997        0.72352326086688       -0.10721902497213
C            2.36098670683976        0.77706519526794       -0.02502140307402
H            1.91218622295023       -2.48032953907153       -0.27179618516079
H           -0.40535794262310       -2.47527809363406       -0.42871081061964
H           -2.76021533282260       -3.15293629365474       -0.27157666500679
H           -4.79377461147391        0.28791166642554        0.71940264177598
H           -3.13505852691104        2.06560459393326        0.67383747009567
H           -1.33053619599029        3.26430233097835        0.20333980818699
H            0.44871457588340        3.92961363540149       -0.52034809937276
H            1.85570689085020        2.96903308776820       -0.79634218715182
H            2.97450040802928        1.64883665160462        0.12049435553210
