32
 energy: -54.336215767050 gnorm: 0.000529908022 xtb: 6.6.1 (8d0f1dd)
N            6.20168844680772        1.16178615983596       -0.76450719719392
C            5.14352622317014        0.77340546580221       -0.54054290103178
C            3.85472015510599        0.30838410757764       -0.25940965839305
C            3.35095722174950       -0.96241945583579       -0.52872829888509
C            2.00203717424831       -1.01830224670259       -0.13128571744603
C            1.33175230683437       -2.24550949209797       -0.15425016357592
C            0.05890622616791       -2.67086022609459        0.12013459159073
C           -1.19316237414800       -2.03522856742308        0.24127420812404
N           -2.23194099699002       -2.89508724548941        0.39851279151660
C           -1.54751799836477       -0.67186888856439        0.09537019787823
C           -2.85644115108383       -0.27465588023362       -0.27723126597005
N           -3.88932859555322       -1.07347234145080       -0.74747573718277
C           -2.97483325590755        1.11721488361214       -0.10510417542142
C           -4.10291684993850        1.86668427281032       -0.43766528749264
N           -5.05193701803583        2.44752149077715       -0.73061297919870
C           -1.77069574908367        1.59023105103614        0.42653261371798
C           -0.85465014814548        0.53569372204899        0.51257292102269
C            0.46750579571521        0.80607400312620        0.95241150164873
N            0.59310746293080        1.80878541891164        1.84047199558292
C            1.67598032792588        0.27476908140696        0.43320042322009
C            2.83750050493192        1.05263635686860        0.36271120967294
H            3.90177576720296       -1.77085431888682       -0.97363219428735
H            2.00091944265186       -3.05957553029206       -0.41918675860263
H           -0.03698070373487       -3.75307241403541        0.14398053431449
H           -3.14733811768376       -2.53576750282225        0.61368562598452
H           -2.04986249206682       -3.87205696267094        0.55047106811009
H           -3.60354961184582       -1.82554396502971       -1.35951883075303
H           -4.64807682932104       -0.52990309744680       -1.13885504925574
H           -1.57125680538879        2.63082163337894        0.60979266724460
H            1.50366326833304        2.16041348834620        2.08054283087976
H           -0.22016644013156        2.31085377186950        2.15230400397418
H            2.94594186534801        2.08632806136753        0.64154756500756
