27
 energy: -42.931669277782 gnorm: 0.000675311904 xtb: 6.6.1 (8d0f1dd)
N            5.17781702167326       -1.26905636619114        0.02356970664897
C            4.06367310915880       -0.98546610103170       -0.00382654068959
C            2.72304695469006       -0.59569567152576       -0.02418922458207
C            1.60020908340462       -1.42264093303108       -0.04846893444009
C            0.43026232155974       -0.64772169674522       -0.03955729864576
C           -0.79808059634721       -1.28874565281404       -0.03512122889222
C           -2.12612977975386       -0.89365578293411       -0.00625645135381
C           -3.14441362750687       -1.87385945202048        0.02687829574261
C           -4.38754013553767       -1.26004527584983        0.05555125733948
C           -4.18756608451158        0.11335037885376        0.03396572093758
C           -2.80497516966833        0.39752492735428       -0.00295593190100
C           -2.37952187380803        1.72119078041964       -0.03881918129886
C           -1.15976499007863        2.37211294438847       -0.05858312621013
C            0.17190267460758        1.96533891653093       -0.03929156839498
C            0.85300378508089        0.76326629214165       -0.02046988225385
C            2.28064934032505        0.74781814883579       -0.00098347892523
N            3.12745198044856        1.80512107671289       -0.00976965838224
H            1.63108770884070       -2.49695658707706       -0.06478382421044
H           -0.69186423922533       -2.37114092760500       -0.04563363959009
H           -2.96575292663818       -2.93449227443747        0.03195729968555
H           -5.33876467680801       -1.75929660720102        0.08777655094665
H           -4.96123716275387        0.86065999044185        0.04488924587339
H           -3.21980865695342        2.41085461301092       -0.04697956273360
H           -1.26098469327801        3.45225649718955       -0.08453394424765
H            0.84285644835243        2.82067732849525       -0.04822739671530
H            4.10667597897798        1.62243228985180        0.13224705054451
H            2.79554602384958        2.72822726223729        0.20594407784825
