32
 energy: -53.537830151820 gnorm: 0.000731821522 xtb: 6.6.1 (8d0f1dd)
N            5.85069517261823       -0.43626265966837        1.40585168765681
C            4.77149698941669       -0.43378479714393        1.00715856303543
C            3.45954442404436       -0.42060649112444        0.53002840336737
C            2.86978032468027       -1.36817646422826       -0.30871025941745
C            1.52131249170379       -1.02627914114800       -0.47900909203037
C            0.62111718026465       -1.88376571452059       -1.13686529939396
N           -0.59122000363373       -2.14523894927053       -0.80664557257204
C           -1.49811808119528       -1.62326646547403       -0.00177207481972
N           -2.25677499588555       -2.56260163048947        0.65107619829137
C           -1.93037147579548       -0.28937538865598       -0.00465853901379
C           -3.29088088068619        0.08519732963763        0.07868758148201
N           -4.36603495152978       -0.75092936829339        0.28861776432023
C           -3.39053690023901        1.46128270081376       -0.14274831868165
C           -2.11837881254773        1.97992034029003       -0.32063110988965
N           -1.85851515833005        3.33079064462745       -0.54505407082604
C           -1.15037888359550        0.93247174252394       -0.20084835580153
C            0.20617987367113        1.16427534638925        0.05165059666785
N            0.59617820510806        2.46366022768368        0.15406654225000
C            1.28737420590087        0.22482995711746        0.20109085679300
C            2.49892551404027        0.56922898425952        0.80917557544854
H            3.34316857682060       -2.25310333679488       -0.69317982884823
H            1.02155341104104       -2.53131662336664       -1.91421741074448
H           -2.75843105108516       -2.25847206424449        1.46890786565728
H           -1.86909332569245       -3.49315598204021        0.67588649586178
H           -4.22764744215508       -1.70760807127626       -0.00617190300938
H           -5.24951771746776       -0.36265325350240       -0.00868333924858
H           -4.30757800052885        2.02181386485123       -0.18088880153976
H           -1.18902066029437        3.50067370718398       -1.28473173960994
H           -2.70961060016314        3.85842799914703       -0.68995777490607
H           -0.09729414533812        3.15486104614324        0.39668276949493
H            1.55178896099415        2.64446968806016        0.40835369366744
H            2.69721955225696        1.41787518661753        1.44220090615877
