28
 energy: -51.440260936400 gnorm: 0.000717082325 xtb: 6.6.1 (8d0f1dd)
N           -3.83977787383390        1.86801654472066       -0.11327097809065
C           -3.02189744629571        1.05805911475746       -0.10973820320858
C           -2.19588649775113       -0.06353159336931       -0.03034891490824
C           -2.76633859968461       -1.33709743402554        0.29817596586606
N           -4.08461015684639       -1.55198142611378        0.45844657240723
C           -1.73244800198767       -2.25548286612781        0.38144866089254
C           -0.50133461971286       -1.62270313302745        0.11171094431983
C            0.62961137391498       -2.38086887738021       -0.09114793225311
C            1.97620505762192       -2.04949477762113       -0.38232016569025
N            2.71144025791109       -2.98826025873819       -1.03525954221146
N            2.67164000122927       -1.02756638346023        0.03849555190622
C            2.48453438190392        0.21479392228759        0.34429062852427
N            3.50736544956433        0.90968389494572        0.87453006738405
C            3.19053853094889        2.19657293258272        0.77336104318448
C            1.94015412636802        2.41736599997314        0.18821368984859
C            1.37799767134187        1.15621245766110       -0.02700847121933
C            0.02618404331943        0.93066923323277       -0.31295882264091
C           -0.63125992833424        2.11609348783077       -0.74504247054552
N           -1.06575071543983        3.08175876017545       -1.18641277010673
C           -0.79742585237230       -0.18608385047619       -0.11308248621558
H           -4.71761945895723       -0.77056892445191        0.43086963919879
H           -4.41813722194768       -2.43762186701132        0.79267956270920
H           -1.84547937139984       -3.30341974695875        0.58728379178600
H            0.45416868590919       -3.45060680556014       -0.03614381902112
H            2.33710376139285       -3.90212688143240       -1.21607535305111
H            3.70608021082148       -2.84822579452798       -1.08597769018091
H            3.87543740804908        2.94729872172865        1.12647843775767
H            1.47945903153311        3.36875968804726        0.00839321065516
