29
 energy: -55.985599378326 gnorm: 0.000816244594 xtb: 6.6.1 (8d0f1dd)
N           -2.55459006717881       -4.03631988008653        0.00029962223077
C           -1.90325618342761       -3.09358133697943       -0.00149527569601
C           -1.01598484260432       -1.97723054491620       -0.00059762887493
C            0.33277289380797       -2.37079580651083        0.00015545159035
C            1.53978869009540       -1.71653104396624        0.00052462991798
C            1.94627175650961       -0.37606082008562        0.00041649709713
C            3.30693467990278       -0.03951828587660        0.00063995715093
C            4.41251699967691       -0.88503525080053        0.00027140749198
N            5.35314818104436       -1.54711214002130        0.00330560258122
C            3.37612779307466        1.39343139729301        0.00061173430286
N            4.49223133747886        2.12790630713497        0.00092366263446
N            2.16258640834613        1.93114963580603        0.00012322289869
C            1.25452752277221        0.92723718006492       -0.00012998411983
C           -0.06719943178481        1.31891531106617       -0.00085704775893
C           -1.28899044773468        0.65318975466177       -0.00145047666336
C           -2.50375359831559        1.35939088544733       -0.00206323235115
C           -2.70754350606941        2.73581819274382       -0.00161528157196
N           -2.92562182379247        3.86509466200390       -0.00445891759008
C           -3.54846748738301        0.37922662175171       -0.00264770913082
N           -4.86104251341397        0.61908216728911       -0.00341845326702
N           -3.04683112590786       -0.85283471203725       -0.00217295888348
C           -1.70166702263300       -0.76325428128187       -0.00134893122253
H            0.43270172962791       -3.45224151379153        0.00049309105860
H            2.39255786263970       -2.39020488031581        0.00103123190878
H            4.41252106502406        3.12934626037043        0.00058709203459
H            5.39628527076127        1.69006019160268        0.00106534611902
H           -0.15963125715708        2.40139992199245       -0.00110111781433
H           -5.49473065373435       -0.16099793972569       -0.00361559501595
H           -5.21132108212487        1.56079881696713       -0.00373457755693
