25
 energy: -49.063301660416 gnorm: 0.000802332774 xtb: 6.6.1 (8d0f1dd)
N           -5.24488726665635        0.43027481560487        1.05778092154405
C           -4.24314650732968       -0.02076285481243        0.72509770805007
C           -3.02476502173586       -0.58143766651765        0.32838746806880
C           -2.74421290990958       -1.94773492770486        0.19587734448711
C           -1.43681553425140       -2.10724778204967       -0.23816655668785
C           -0.80654286776072       -0.84850334183033       -0.31441596612560
C            0.57783310797005       -0.70483037525554       -0.33953056581944
C            1.25870180065675       -1.93532807212770       -0.58034569046101
N            1.75184086603943       -2.92868502760208       -0.86677930818783
C            1.41353121047389        0.39262597715397       -0.05460918787960
C            2.78882131747354        0.25975423323844        0.23460570203251
C            3.60804350272104       -0.86943481028266        0.32723158775556
N            4.36073935950201       -1.72644430185162        0.45972592961380
C            3.26484620770121        1.56427114122232        0.52354878438060
N            2.32542251234426        2.47005581985559        0.40409204467409
C            1.17089260553846        1.84484507756382        0.05310074089856
C            0.12640584308837        2.67682165513193       -0.29755159034130
C           -1.20526701795575        2.42497298564500       -0.64659755890273
N           -1.96902135654457        1.42048628339970       -0.35543359889434
C           -1.87486690346678        0.16392139003120       -0.06557653183790
H           -3.44352386526525       -2.73983039420074        0.39168432162308
H           -0.96371608716464       -3.04852940342474       -0.44696995087892
H            4.26770145419806        1.82516440510795        0.80763151698899
H            0.41026897613200        3.72263438311148       -0.28057301523325
H           -1.75179123250135        3.25347915459487       -1.08913451696777
