33
 energy: -58.058599493267 gnorm: 0.000822018959 xtb: 6.6.1 (8d0f1dd)
N           -6.17205779371193       -0.72659345318457       -0.50192123823655
C           -5.10253097610268       -0.38129599892081       -0.25439334014348
C           -3.78199207691550       -0.01681477666696        0.00408078025213
C           -3.31514346275505        1.16831144765057        0.57080384733077
C           -1.91505196633281        1.15573467198425        0.54732990009667
C           -1.17058469989627        2.29543877382203        0.88657419149243
N           -0.10243140184004        2.74218972962249        0.31955450022322
C            0.87563836976204        2.25971840763307       -0.39642307316100
C            1.53852861739755        1.05147237607256       -0.26415515129997
C            2.93558301851326        0.93551462778963       -0.51432899526350
N            3.76249279764640        1.89456831542207       -0.99327751646959
C            3.36776840970175       -0.30727946565810       -0.01916134786015
C            4.67790289895369       -0.77672400213711       -0.00372521257095
N            5.75716489662625       -1.17826060199615        0.01477119511830
C            2.24348977766339       -1.00734670783489        0.47760879457962
N            2.34243744124170       -2.27657745615643        1.01148282438761
C            1.07724131155903       -0.22974803150148        0.27949794012064
C           -0.22024576431801       -0.78608300424409        0.22356954905024
N           -0.29976640017943       -2.13227035299209        0.35832272007242
C           -1.47930817159155       -0.13403683134574        0.04456786632328
C           -2.66039616605823       -0.82633612902982       -0.30746217751843
N           -2.78231740268361       -2.10212551525226       -0.84696460502917
H           -3.92536649623852        1.99048733906965        0.89559032743822
H           -1.62969216861101        2.99963235657965        1.57684260607438
H            1.33484916124592        3.01737410764875       -1.02932491015484
H            4.71738233226891        1.64217678266296       -1.18330332479743
H            3.38149707963521        2.68002862461665       -1.48989200485749
H            3.29949434681293       -2.57316322202233        1.15425510135996
H            1.75217264020167       -2.45733680558316        1.81172466248924
H           -1.20790286753524       -2.56681805323430        0.33122347314817
H            0.51785040483683       -2.70048479451496        0.21202137975564
H           -3.73034792341013       -2.30559772811044       -1.13885238220624
H           -2.10943954298663       -2.32660143838917       -1.56832186734436
