27
 energy: -46.927629117582 gnorm: 0.000631060637 xtb: 6.6.1 (8d0f1dd)
N           -2.97442778812613        3.37135709835401        0.38703315103830
C           -2.25512700505915        2.48313127272954        0.26169515638107
C           -1.37860414652425        1.37841523706214        0.12157747486616
C           -2.06083924517056        0.17803706422960        0.24328401470652
C           -1.74496591776254       -1.16131376077274        0.06971372468918
C           -2.76243962568493       -2.14686649893897        0.07262224284036
N           -2.29818965738417       -3.37177115547996       -0.14800065227879
C           -0.97493312948812       -3.24818575896622       -0.27874005262831
C           -0.53211524708725       -1.91598532492509       -0.16291066391144
C            0.82270507518168       -1.59646018922191       -0.16112881686855
C            1.51314422986068       -0.41965217263540       -0.01523831046394
C            2.95090641311997       -0.42276334154812        0.11579500587309
N            3.77623375251089       -1.48404088234712        0.11695263366574
N            3.44993752077291        0.80938045190065        0.24710664145703
C            2.41475214823865        1.64200188388250        0.15440336339438
C            1.17192315840280        1.00145512871066        0.00003487606828
C           -0.01709548951536        1.74784808830130       -0.14068584780131
N            0.13624055160331        3.03746336380442       -0.51015914662393
H           -3.11761731151566        0.32380999025099        0.45925356412186
H           -3.81515576913305       -1.97545640158507        0.21313801396180
H           -0.36146789737835       -4.11566641267059       -0.45027528184621
H            1.45144989294668       -2.47749746746957       -0.26058668444041
H            4.74184020527606       -1.30725209897282        0.33235736942004
H            3.42473969560911       -2.42029707347580        0.20207855315178
H            2.60701081956760        2.69339234224956        0.28300406082446
H           -0.65264567348464        3.66410099599149       -0.50234634633934
H            1.04968427272346        3.41271330714255       -0.68785942035791
