29
 energy: -50.372937954526 gnorm: 0.000788578743 xtb: 6.6.1 (8d0f1dd)
N           -2.45668159580239       -4.09631136588178       -0.12106857921867
C           -1.82925381165306       -3.13504103458195       -0.08421210062415
C           -1.07405710378091       -1.93663991479118       -0.04236607972035
C            0.30255157275930       -2.14075408747639        0.00655881928845
C            1.40486998683811       -1.30707978584890        0.07978806081864
C            2.68450007184577       -1.88437821617827        0.29783991851762
N            3.65470190440636       -0.99487059501855        0.35795344800115
C            3.07731176151637        0.20492872697635        0.12845565277383
N            3.87530327252256        1.32307783870053        0.14043471817612
C            1.67601527685323        0.11089334315635       -0.07164156509996
C            0.88180627415586        1.21725555527636       -0.44201524776147
N            1.55514052253793        2.25917542278828       -0.99093386006393
C           -0.50072852952324        1.43163470044457       -0.21198638747146
C           -1.04023511151137        2.72339383963221       -0.16571999401560
N           -2.34661099895710        2.76161364257819        0.11963377077129
C           -2.73449705222809        1.49244867676431        0.23478073843575
N           -4.02535769984069        1.20041842512450        0.47519697067496
C           -1.63630806616438        0.56316908580394        0.05314533905731
C           -1.87746099117877       -0.78859835750905        0.04316975360425
H            0.57284038182389       -3.19326813652696        0.04677224369153
H            2.89041794993646       -2.93074052475236        0.43480205496187
H            4.79785524494712        1.11143312077260        0.49610365206497
H            3.46788673724140        2.15879305735990        0.53624428357431
H            1.03508237100928        3.02190510902252       -1.38626436765196
H            2.49555066791020        2.10719215183485       -1.31621041877828
H           -0.52004463992087        3.66151261274082       -0.25651759311818
H           -4.31149809102806        0.27959155612352        0.75463184168084
H           -4.63574006849073        1.97547352302583        0.66643510361971
H           -2.93069713812449       -1.04477442045955        0.13322391821131
