29
 energy: -51.174298684088 gnorm: 0.000603960916 xtb: 6.6.1 (8d0f1dd)
N            2.31473190487632       -4.25638917241404        0.07896829759626
C            2.00125644602791       -3.15219944207446        0.05448413827799
C            1.58564965342348       -1.79595393076392        0.02635228104708
C            2.63994547685577       -0.89518604995494        0.02246535813958
C            2.71821648279102        0.49090202217292       -0.00598002664326
C            3.97909864650313        1.13968258551525       -0.03132914834553
N            3.88220742315997        2.46422148579621       -0.05442844036005
C            2.57447127188843        2.73408342846274       -0.03911375310743
C            1.76740998439443        1.57719217121347       -0.01142784398436
C            0.37607721776422        1.69105992065095        0.01132603789050
C           -0.67105433184477        0.80324630418251        0.01762017528684
C           -2.01975381179888        1.28263877955435        0.03204585414988
N           -2.43668574063888        2.55669809781188        0.07280941895762
C           -2.90440567216667        0.18468725986436       -0.00183710165584
C           -4.29663596880647        0.26548227371061       -0.00451133743267
N           -5.44478004434389        0.33680550940078       -0.00668128746127
C           -2.14844501754401       -1.00063922456206       -0.03159380180312
N           -2.70226678709410       -2.22123423010202       -0.07693095019488
C           -0.74830650128700       -0.66929757212442       -0.00980839434494
C            0.17754215058637       -1.67986857363503       -0.00251867229572
H            3.61579048739029       -1.37471252451587        0.03858726693950
H            4.94156206100982        0.65905822379273       -0.03585866271146
H            2.23141300223364        3.75450105220859       -0.05068613960156
H            0.07153605496126        2.73452277659611        0.01862234800079
H           -3.42212328265977        2.75487564184690        0.07324732032035
H           -1.78986975845396        3.32437097243279        0.09821748029232
H           -2.14866813294304       -3.05907994316614       -0.08676919502397
H           -3.70388404733149       -2.30744229553654       -0.07415619695277
H           -0.27396796665246       -2.66967341416352       -0.01554078027980
