30
 energy: -55.690205099593 gnorm: 0.000943586846 xtb: 6.6.1 (8d0f1dd)
N            4.54282528519846       -2.63551530614792        0.10147339550626
C            3.49756083468644       -2.16471100738788        0.05731837072921
C            2.18357599070834       -1.62303164218961        0.00410076793968
C            1.21803829352319       -2.61829982528004       -0.07013340597144
C           -0.16804646309508       -2.64822682798433       -0.11052028751395
C           -1.21038745343524       -1.73276659774730       -0.07323749941416
C           -2.52790299995348       -2.22480043111748       -0.06658395661230
C           -3.43126299752070       -1.17300223458164        0.00331595012579
N           -4.77231141874091       -1.23161710942391        0.04605149534642
C           -2.67614094268389        0.04439662428991        0.02182437139954
C           -3.36940606363996        1.25205061600764        0.13406671749373
N           -4.12412121827649        2.11211691555411        0.25646204937508
C           -1.30421744764540       -0.25634517586494       -0.03341648773505
C           -0.33138966981001        0.75060799145667       -0.07805364876201
C           -0.83388546292326        2.08397809113277       -0.18507945906723
N           -1.22371018939257        3.15378154622952       -0.31638339350128
C            1.06675408325781        0.78350241511317       -0.04452795242098
N            1.59678217608324        2.01799125518180       -0.05051372678781
C            2.92887910194712        1.90137296949983        0.02001003570657
N            3.71758785749044        2.98297345680712        0.04177179164480
C            3.32075841750749        0.54491824831331        0.06666969195706
C            2.15710597326067       -0.21364085994617        0.01977912630219
H            1.65793411887579       -3.61175912626244       -0.09130681668177
H           -0.54698129090840       -3.66512207117305       -0.15967581530235
H           -2.79145498923497       -3.26572851295716       -0.09751860894266
H           -5.30382691910008       -0.38017831424910        0.11210249829380
H           -5.24829136128512       -2.11496630874512        0.04339775435611
H            4.71560595722727        2.89595704413475        0.09050678385749
H            3.28654802658801        3.88879321826220       -0.01163810422678
H            4.32772439769177        0.18000105987489        0.11933459830514
