30
 energy: -55.687850741665 gnorm: 0.000827596454 xtb: 6.6.1 (8d0f1dd)
N            3.55086522105574        3.72994235330707       -0.52391849014428
C            3.28905084043621        2.62679368753540       -0.32946215348467
C            2.96229105226935        1.28965182190986       -0.10264375337694
C            3.85119262475740        0.26946305099406        0.22306771456275
C            3.13411945246880       -0.91085265723300        0.37479832103525
C            1.76674508316807       -0.68635388664550        0.14332553532136
C            0.87612871707114       -1.77346571285386        0.05905470305892
C            1.54631937125906       -3.01786165228330        0.22348025574195
N            2.05292680188100       -4.03849872285444        0.37153589086317
C           -0.50979155553692       -1.95138398494274       -0.18105866644214
N           -0.89198826771061       -3.21792573467938       -0.51060561451604
C           -1.58334184749000       -1.02790400652095       -0.05397526219901
C           -2.87255306806762       -1.63674304763305       -0.01647579287310
N           -3.88163888616966       -2.18338850769825        0.00826382459751
C           -1.71517606581949        0.35288954475046        0.05463280400198
N           -2.98111979191979        0.79322159190391        0.22254584291927
C           -2.95869138744567        2.12552618656239        0.17927478216631
N           -4.07392948557648        2.85203921121975        0.32104754295700
C           -1.64034673488412        2.61190167601100       -0.03691319898157
C           -0.80927416809858        1.50314444512778       -0.09413364128010
C            0.57703269993232        1.62565743352581       -0.24212838164445
C            1.62830330040548        0.76050659386194       -0.11565969713297
H            4.91412868793014        0.38046042444264        0.33546730560270
H            3.57379230483299       -1.86076952715919        0.61340686522833
H           -1.87036277174914       -3.45221821049503       -0.53554269655902
H           -0.22425938551480       -3.97000510241409       -0.48980488814709
H           -4.04954078128316        3.85396247743027        0.28025145563320
H           -4.94348075192616        2.37162551713377        0.47083360002520
H           -1.34865089620890        3.64089906237627       -0.11628130108386
H            0.88436470713355        2.65550440782048       -0.40875872824980
