25
 energy: -48.284133426154 gnorm: 0.000605294667 xtb: 6.6.1 (8d0f1dd)
N           -4.94850344477347       -1.26308834282390        1.13954981335230
C           -4.06829163573131       -0.61556499330036        0.78525167796798
C           -3.00423157774466        0.18601497586635        0.36362219423452
C           -3.02478424992077        1.57115820018695        0.19546100866377
C           -1.77950904060282        2.00889773919295       -0.24959652687183
C           -0.90068028166620        0.92207198895574       -0.32560937661533
C            0.48265019667740        1.05468634563237       -0.35103296770571
C            0.96588446399869        2.39053201821856       -0.45614538222812
N            1.33157976728454        3.46927089343791       -0.57940308142731
C            1.52379905130883        0.13430568702963       -0.12521204064135
N            2.74837505353130        0.62640935934119        0.06747781346217
C            3.53225253343533       -0.44580064674848        0.30522691773806
N            4.83080394274685       -0.32571076397904        0.56951598732742
N            2.90278050519974       -1.63070035059863        0.24641927161949
C            1.62454371613320       -1.34462589541873       -0.02764580374387
C            0.76093515777714       -2.38334131114217       -0.35982434803804
C           -0.59803067580232       -2.38669647199733       -0.63198696974041
N           -1.53944550184935       -1.55060823828672       -0.29287490140580
C           -1.72411579462778       -0.30373968898289       -0.04863096830792
H           -3.87777470043241        2.19835461096047        0.38258909064812
H           -1.51786334070270        3.02886546485208       -0.46141291497251
H            5.37980058494717       -1.14910328461955        0.73746892063365
H            5.24406321063389        0.58939164518268        0.57944090602453
H            1.26001483655494       -3.34230489898804       -0.42191050132281
H           -1.00108881787416       -3.30335589857209       -1.05648198605382
