29
 energy: -56.763037921940 gnorm: 0.000393012093 xtb: 6.6.1 (8d0f1dd)
N            3.56683829664314        2.94431983771720       -0.46990117641708
C            2.75833952470983        2.15743157011956       -0.27199116572521
C            1.62310853134750        1.30281066513295       -0.11290811261695
C            0.46460395065804        2.11100631786464       -0.13689137657291
C           -0.88636652422567        1.89579245891409       -0.04494337304892
C           -1.70366988378601        0.76258261709936        0.00964199947841
C           -3.10478367164452        0.88119646556369        0.07964821794090
C           -3.86881433452454        2.04277003934076        0.15297570641292
N           -4.52924057349652        2.98200788979899        0.21342902595820
C           -3.62952373105436       -0.44895312479593        0.05190854459266
N           -4.91469423196294       -0.80537460761667        0.09740520620707
N           -2.64385569322087       -1.34110915590392       -0.03249513760349
C           -1.46927721999748       -0.67955188288552       -0.04975470837250
C           -0.32874691876543       -1.48970324338162       -0.10296311681327
C           -0.70811103521734       -2.86510474291438       -0.19486076605678
N           -0.99469090015390       -3.97047523525563       -0.28514954085714
C            1.05046343960288       -1.27050762296218       -0.03508005058014
C            1.92743205518337       -2.36852881581314        0.01500223486086
C            3.23412555465603       -1.92707814682692        0.14162441963926
C            3.23628602859967       -0.52786499194101        0.14029760601928
C            4.42423534071583        0.19105213892152        0.33028803452047
N            5.45356808017456        0.65518754413055        0.53957306640347
C            1.89500822600448       -0.05374447221627        0.01369965317292
H            0.71816233290607        3.16365073365548       -0.22054787779888
H           -1.46867121485661        2.81307529438066       -0.03056438602289
H           -5.14380596094760       -1.78368920224609        0.06995964739410
H           -5.64049978999307       -0.11465873568124        0.17117183400805
H            1.62263918621367       -3.39727150897707       -0.01645993160812
H            4.10985290773394       -2.54262080841898        0.23187696148863
