31
 energy: -60.224270297260 gnorm: 0.000966951862 xtb: 6.6.1 (8d0f1dd)
N            3.55715475240544       -3.14011420115251        0.05763253310046
C            2.71120699641137       -2.36717784602961        0.03684867008081
C            1.58247755829440       -1.49677636022038        0.01575853170473
C            0.40403242821728       -2.23925516454790        0.01368069762668
C           -0.95675120614868       -1.96434787011835       -0.00002581728627
C           -1.74633513153276       -0.82604616444159       -0.00326953664620
C           -3.16071615473156       -0.95930647235425       -0.01339429701868
C           -3.88131911174092       -2.15466035044087       -0.02770574426617
N           -4.51286730759737       -3.11557394896553       -0.03312615935484
C           -3.76202299612959        0.31618772179352       -0.00739366134464
N           -5.07413884027948        0.58294117927922       -0.01333346724748
C           -2.71345434923006        1.27224005850282        0.00498165196940
C           -2.93270558607413        2.65098406558405        0.01072630615162
N           -3.16869217685919        3.77612605138830        0.02385095962312
C           -1.46306023229207        0.61411143234950        0.00673576626951
C           -0.29566822059228        1.36188805240529        0.01159081509833
C            1.06259476893528        1.09456223651783        0.00491669902117
N            1.85098059058546        2.18905682195804       -0.00043822441980
C            3.11900188659044        1.79063751051481       -0.01113713202248
N            4.14689101845147        2.64130952156956       -0.02151110950214
C            3.21237171651918        0.35843179830378       -0.00911538255082
C            4.45769400726649       -0.26862426852308       -0.02367926043059
N            5.55361703040546       -0.61706830427007       -0.04213312961142
C            1.89574550028698       -0.12434534902485        0.00191291852963
H            0.60535688297882       -3.30696988900330        0.02294065798800
H           -1.55896050178173       -2.86925105638989       -0.00612678361700
H           -5.74361600547279       -0.16722921023631       -0.02280139906157
H           -5.39729159789246        1.53510208705458       -0.00794459524605
H           -0.46964674321793        2.43472471760454        0.01592783399586
H            5.09149801493813        2.29721750369844       -0.03153685807712
H            3.96299652118681        3.62902802359420       -0.02308845565596
