28
 energy: -57.033080646253 gnorm: 0.000814195840 xtb: 6.6.1 (8d0f1dd)
N           -5.10256750099741        0.19261849213895        1.55280062466290
C           -4.10052006602587        0.49581355977603        1.08165658352614
C           -2.86976208406834        0.94996624274977        0.59245160455139
C           -2.49803525082214        2.30959173199630        0.57170720233861
C           -1.21113226623802        2.41570327302852        0.08925378625798
C           -0.67757297236180        1.12608731234238       -0.14111975615878
C            0.68461532011435        0.96890509642402       -0.38538823834798
C            1.38008157933489        2.18447622225535       -0.64844140416268
N            1.93132781049884        3.14631481158415       -0.93752611463325
C            1.53818080747948       -0.14010041772329       -0.21726229138312
C            2.90587613791963       -0.08264110591613        0.05665281143487
C            3.83855400322698        0.95073917942062        0.00879438397027
N            4.70073376314892        1.71149681210417        0.02571537430054
C            3.26837105071845       -1.40911729189488        0.51776934685100
N            4.47068283589974       -1.75875386630486        0.96578902856220
N            2.24913657432628       -2.25461684804045        0.44651545130374
C            1.19833794032426       -1.57815084732548       -0.05065124709844
N            0.19215734917695       -2.22607535205270       -0.53890137315284
C           -1.03384647339310       -2.05364660280056       -0.88204255805837
C           -1.98021270983230       -1.12555645839506       -0.37919239254134
C           -3.30727426804139       -1.61597109692307       -0.49061847965250
N           -4.34346201443875       -2.06967510926196       -0.67483566274207
C           -1.79833767713145        0.17083732496473        0.09809419892681
H           -3.12766533553807        3.12007701079063        0.88920299037230
H           -0.66041229818111        3.33104092128844       -0.01901041389597
H            4.61961771412469       -2.70581217911385        1.26972743402569
H            5.23207203913763       -1.10096203520044        0.95692596415413
H           -1.42845795785695       -2.83812605750619       -1.52356262620593
