26
 energy: -52.014517871567 gnorm: 0.000688217911 xtb: 6.6.1 (8d0f1dd)
N           -3.40583440714203        3.28369099226473        0.00088804482124
C           -2.58969650318725        2.47906335812963       -0.00113605489496
C           -1.52927445066564        1.52924720809915        0.00030113706724
C           -0.25941223965790        2.11414028435704       -0.00030705907545
C            1.03053674619768        1.62593358560089       -0.00022908739086
C            1.60292008554145        0.35412906230633        0.00031296325228
C            2.99152281334060        0.18778542177986        0.00010325715716
C            3.98463240520987        1.16327075623233        0.00004482226682
N            4.83239200666362        1.94076332886268       -0.00197314689860
C            3.24130077742810       -1.22614167563700        0.00035527846014
N            4.43853959862142       -1.80929651651946        0.00021844293304
N            2.10975057417039       -1.92322308651748        0.00086800606744
C            1.07758585375739       -1.06522828196675        0.00102758002345
N           -0.10247933888277       -1.59539571642218        0.00180781490045
C           -1.33202760795801       -1.15451614759731        0.00207229335368
N           -2.31455745192284       -2.04975936919498        0.00322149668393
C           -3.45758732870054       -1.33920116624856        0.00293030507577
N           -4.65429303194581       -1.91409281975635        0.00377953870493
N           -3.30524618827961       -0.00000945374450        0.00171477662537
C           -1.98881516327671        0.20823774355347        0.00123686082085
H           -0.30884127288098        3.19900533203584       -0.00098817855746
H            1.78378174141786        2.40991601337307       -0.00090323395630
H            4.48365838415561       -2.81382226863078        0.00052323911922
H            5.28089530799639       -1.26035922912943       -0.00011374224075
H           -4.71543577926613       -2.91673205136477        0.00460640474323
H           -5.47654691973410       -1.33667031796552        0.00346197333816
