34
 energy: -56.977674622884 gnorm: 0.000285967918 xtb: 6.6.1 (8d0f1dd)
N           -5.28172505279561       -0.81928333176435       -0.92176419265074
C           -4.19780774077888       -0.58657608228737       -0.60468447221802
C           -2.88372746697595       -0.30678844832564       -0.25371085219221
C           -2.35274455554582        0.97128125000984        0.02526545425841
N           -3.10778943530070        2.12588241951544        0.08201587631201
C           -0.96891875211906        0.84255839590811        0.21717397758358
C           -0.12645110153546        1.94462282833911        0.50286848721912
N           -0.66334356334668        2.98825905291392        1.20631384696372
N            1.03312540427552        2.20701731059251       -0.03933231780270
C            2.01236712415292        1.52534921611068       -0.55634825205887
C            2.51103628983900        0.26752347148524       -0.25603928619917
C            3.89227123434381       -0.04032403656944       -0.45476122649963
N            4.82626650072827        0.73351066732339       -1.08975403931269
C            4.15239674395739       -1.28593825521758        0.11217735724398
C            2.96724783492801       -1.79002442884511        0.62101274878930
C            1.90768040127718       -0.88473170599293        0.40085311161928
C            0.55075985149104       -1.26006173781785        0.53059328886355
N            0.31723387770902       -2.51964741762055        1.00221313799636
C           -0.62879608925439       -0.57215911245877        0.13313668531792
C           -1.83880307923619       -1.24646481225603       -0.15084874433108
N           -2.04219463420020       -2.61020343807471       -0.31352606313979
H           -2.60861968150341        2.97580056018304       -0.13861204260877
H           -4.00125485261302        2.04892904189980       -0.38386401853272
H           -1.44529924170753        2.80126215237754        1.80987322009029
H           -0.03478619200630        3.73148675917735        1.46273699130395
H            2.62176207801591        2.13972410283015       -1.21964381405029
H            4.62272302420654        1.70975296036936       -1.22113855759760
H            5.78911689634405        0.52288866675521       -0.88394512956795
H            5.10955669049176       -1.77450524589168        0.13771036202886
H            2.90833826488782       -2.76052412797603        1.08290925779821
H           -0.61452089212281       -2.75033182567528        1.30241357214286
H            1.07642348790587       -3.04540624498504        1.39240489368091
H           -2.92602518550283       -2.81957163701881       -0.75934153412080
H           -1.26737226450954       -3.10612122071373       -0.73249712313032
