31
 energy: -60.211723900983 gnorm: 0.000650390710 xtb: 6.6.1 (8d0f1dd)
N            5.42707198560942       -1.08168465247531        1.35737272762829
C            4.56868068925986       -0.40862599250102        0.99561293300668
C            3.52276143583754        0.40489838423922        0.55713089015587
C            3.53809609245870        1.79905417328173        0.42735822284275
C            2.32251204557651        2.23147417259697       -0.08694020914593
C            1.45693779987256        1.13430057274054       -0.23621468324233
C            0.07907003296678        1.27365297268585       -0.40704051541246
C           -0.29371505877218        2.59653538960631       -0.78101577902040
N           -0.52600211119935        3.64215859353194       -1.18932838930302
C           -0.99660180063942        0.39731545379238       -0.16380169321839
C           -2.30250440618063        0.88517036626926        0.04732820609053
C           -2.78816111638658        2.19413679260913        0.11038904418779
N           -3.34087637292467        3.19483791738358        0.23529064299181
C           -3.18488049278785       -0.19927877491785        0.33697308948693
N           -4.49042771703657       -0.08167389946100        0.61068416051926
C           -2.43109635566257       -1.37869538261771        0.27652409989833
C           -2.94136814947633       -2.66167740867586        0.46862413465923
N           -3.37574214489294       -3.71520444036218        0.62514585809384
C           -1.07338976582231       -1.06689977176629       -0.04283904389486
C           -0.20646150151638       -2.09127619564562       -0.34097229626687
C            1.17402702093924       -2.12361608810153       -0.65808205129120
N            1.62688542599637       -3.21079677363067       -1.32809367132935
N            2.11882069271916       -1.32160488979274       -0.23583565301901
C            2.27234397968155       -0.07584645781587        0.07155936605744
H            4.36981861034356        2.42970860064617        0.68424275218349
H            2.06032784217701        3.25505443742857       -0.27833813836280
H           -4.91810439604780        0.82862305979910        0.63165938111473
H           -5.03858388286282       -0.89529919030685        0.82920667083512
H           -0.66568785894090       -3.07520242558164       -0.31862305159403
H            1.02078520576566       -3.98941849900178       -1.51560787294932
H            2.62199370374755       -3.33510369645754       -1.40797370670161
