31
 energy: -60.200614655046 gnorm: 0.000860917420 xtb: 6.6.1 (8d0f1dd)
N            4.71441072787561       -1.87884269950917        0.80077224090216
C            4.14201546837764       -0.93174041138265        0.49339181544762
C            3.49372525794671        0.25129633734811        0.12758348029289
C            4.14312817639362        1.44786613238098       -0.25723491239042
C            3.19719127946941        2.39600627354611       -0.55306524142900
C            1.89352985661927        1.87202923491778       -0.32069616761842
C            0.80461210623430        2.69772686143962       -0.33390711695975
C           -0.56026740434047        2.59479369932526        0.03800605176740
N           -1.16471797013208        3.80694808463710        0.18578644792315
C           -1.38484460100042        1.46241508977903        0.20437138662453
C           -2.70181497808288        1.79141501335300        0.62282658894871
N           -3.71324262364587        2.11708475581170        1.05940578121891
C           -1.19143336147412        0.07595067851042        0.02213845558495
C           -2.28314261416707       -0.79830463494078       -0.10861223054336
C           -3.63775054535333       -0.51825313378221       -0.31425821580288
N           -4.75884291108842       -0.43050421151491       -0.55455551898875
C           -1.82699765994183       -2.15219892934681       -0.13454588858396
N           -2.60577812463346       -3.22910815197278       -0.28100413119098
C           -0.43140575795557       -2.13250949668343        0.01653113198617
C            0.36081521705476       -3.28246246989486        0.04940917556994
N            0.93272727835165       -4.27853612283391        0.06684747317812
C            0.01949140750106       -0.78285393976374        0.07480846170408
N            1.29715295414808       -0.57693786220570        0.18647951006113
C            2.09542638895693        0.44306185508227        0.05552717443912
H            5.20976002642923        1.57128144221407       -0.30745894779386
H            3.39407624792077        3.40344559737859       -0.87212526068340
H            1.06487934703308        3.72115607179828       -0.59650634066059
H           -2.12818280790271        3.87166925643251        0.46777095551599
H           -0.62471687529174        4.65172329292893        0.13786995172011
H           -2.19741220023700       -4.14825577041733       -0.29214741329026
H           -3.60035602056949       -3.12235080053229       -0.39168063784877
