31
 energy: -60.207996017815 gnorm: 0.000854339908 xtb: 6.6.1 (8d0f1dd)
N           -4.76856267279954       -2.01398311526447       -1.74434317631317
C           -4.17556422154478       -1.14605488439086       -1.27966441908095
C           -3.45351210580623       -0.09331672801134       -0.71659451066048
C           -3.89923225718365        1.22279760573431       -0.51840394981669
C           -2.90973414817673        1.96149978781433        0.11388163662138
C           -1.76274466106525        1.16266490725030        0.27292555668947
C           -0.49785601092305        1.66683564788078        0.56003834138824
C           -0.51867092080249        3.02114194164421        0.99852598218934
N           -0.54379422450435        4.09434739950044        1.40099387967739
C            0.79988719769237        1.17240458912494        0.30303817356759
C            1.87601505032902        2.05564553297933        0.22386539542183
C            3.01329049629358        1.38952692276821       -0.26828367523224
N            4.21159763127133        1.93273150461774       -0.52301837623514
C            2.66905130447582        0.02991553090618       -0.45539061379902
C            3.58386901537488       -0.88633561019629       -0.97683247228203
N            4.41740913428718       -1.51692724304401       -1.45673630352237
C            1.32345252866782       -0.16788780615253       -0.05247160576602
C            0.81830657656017       -1.43809894299253        0.19083128147815
C            1.70841649194282       -2.53258004488402        0.09764863878090
N            2.35523139357974       -3.48179654492508        0.10358989276728
C           -0.50759476021263       -1.85101934479416        0.57561090511669
N           -0.63075002475941       -2.97436863746084        1.31863029517456
N           -1.62097269103784       -1.34780845054272        0.13344500733449
C           -2.15066063389453       -0.20465819697054       -0.16003804927963
H           -4.86609246062357        1.59002219110336       -0.81093312475592
H           -2.98086144522938        2.99904501974040        0.38122374709478
H            1.83329158260578        3.10700708079089        0.43848696389094
H            4.37537449242348        2.90997142645523       -0.36036903263510
H            4.94392301907685        1.36586874350428       -0.91552638884510
H            0.16823822730200       -3.56413377438193        1.48354482109991
H           -1.55098399331645       -3.37181776470505        1.41386313863681
