32
 energy: -53.527279845549 gnorm: 0.000503022061 xtb: 6.6.1 (8d0f1dd)
N           -2.58074459182620       -3.80690306183509       -0.46553230223229
C           -1.93716331843175       -2.86436137730529       -0.31598089507139
C           -1.13101520506013       -1.71630825478178       -0.13965018964385
C            0.17156091528833       -2.05928961242936        0.20927193205495
C            1.37303042790819       -1.38295593397558        0.29141653116315
C            2.55680092703604       -2.08182790345530        0.64484967334548
N            3.64181833650100       -1.33956132002974        0.54893944378441
C            3.23617484740226       -0.13265150178961        0.09435020105573
N            4.18358977507366        0.85454521447167       -0.09420842544696
C            1.83847647769317       -0.06734595205279       -0.09773084831957
C            1.16481558850130        1.08277753099732       -0.55732350589342
N            1.92426842971672        1.97390835966979       -1.24321650573794
C           -0.14104839743432        1.51407862428533       -0.21945259013114
C           -0.38277712819364        2.89133183475940       -0.05905013884412
C           -1.68069733175962        3.09356901896800        0.37817243496036
C           -2.32051477170199        1.86017814756848        0.41608170550444
N           -3.65547443582095        1.69513586004927        0.78703717480731
C           -1.39464430538316        0.83673952373920        0.04612442664384
C           -1.83161667461521       -0.47698125595351       -0.23442672894811
N           -3.14805140260393       -0.60239822404810       -0.53139478204572
H            0.28025001899667       -3.12167443273667        0.41817803100562
H            2.61751521984502       -3.10536438489702        0.96855053965903
H            3.90561066754077        1.77962649921455        0.20618989241963
H            5.07365878980586        0.56907712890193        0.29335953847519
H            1.47747981223881        2.76372477064280       -1.67319220082286
H            2.82588980163726        1.68259894943254       -1.58163484463558
H            0.35403655153929        3.67033969888506       -0.14358722194326
H           -2.12241340268107        4.03544460870185        0.64831183601200
H           -4.02093222494295        2.51776230985447        1.24837661111568
H           -3.83852985936878        0.85819544776942        1.32576699303534
H           -3.69855042597884        0.22199464133919       -0.70221616759482
H           -3.53926271652020       -1.50968561046419       -0.72224892723115
