28
 energy: -46.652433672598 gnorm: 0.000440745562 xtb: 6.6.1 (8d0f1dd)
N           -3.07390132346746       -3.26731039526501        0.39073003410802
C           -2.31776924351338       -2.40804696716841        0.27429348152637
C           -1.40205015659271       -1.33524358398985        0.14462945090881
C           -2.05879506033015       -0.11455928389406        0.25691777366081
C           -1.74067340041989        1.22359354568568        0.09760901278275
C           -2.77632016727093        2.19155495490581        0.12635257671248
C           -2.24526945137531        3.44813049929809       -0.10033538908477
C           -0.86897242634308        3.31161114953286       -0.25301648077936
C           -0.50878681266561        1.95541620468474       -0.13457801644917
C            0.83145399891529        1.58137140322010       -0.15318493914476
C            1.50774778895803        0.39250128992110       -0.02165801992480
C            2.94598260995933        0.38081209380718        0.07392401590130
N            3.78056850825321        1.44104580895886        0.12502120322663
N            3.43599360780093       -0.85361041556560        0.20526380977759
C            2.38970049098856       -1.67792298159213        0.14924690510308
C            1.15243067002740       -1.02543631989498        0.01552350472846
C           -0.05302841056854       -1.75023893513273       -0.08946736261653
N            0.07045255821895       -3.06067042806824       -0.39968337543750
H           -3.11990947676022       -0.25294767240155        0.45885908527033
H           -3.81533162748606        1.96361188490494        0.28507496036592
H           -2.79550168534342        4.37014634711380       -0.14515540555668
H           -0.17509347167677        4.11557943866994       -0.42702144429732
H            1.48528182078046        2.44413072080947       -0.25595113992909
H            3.47728294188100        2.34562833396920       -0.18823390304863
H            4.76312118541569        1.23147283923392        0.08749881504495
H            2.57985843358781       -2.73020418032052        0.27317557733736
H            0.97562281214764       -3.46711697056374       -0.54626549039656
H           -0.73415071042027       -3.66570890785499       -0.37146307289166
