31
 energy: -54.611044562613 gnorm: 0.000856993986 xtb: 6.6.1 (8d0f1dd)
N           -2.57149126196934        3.95662502390484        0.60115922652262
C           -2.13635961914850        2.90640950865752        0.42574426876662
C           -1.61636964231859        1.60482559381127        0.22160679592740
C           -2.59942326381930        0.64409349028873        0.38918709187221
C           -2.67847470953561       -0.71703001869405        0.13907091022474
C           -3.91969761967020       -1.39888492905764        0.19751920786859
N           -3.82208439454778       -2.67796144049754       -0.14507026724680
C           -2.53086810760524       -2.88888346438861       -0.41907362535094
C           -1.73981278377680       -1.73269001932488       -0.27206145712119
C           -0.35180047653325       -1.78696195603614       -0.39449736676050
C            0.67190743681799       -0.89170039429428       -0.20752658703639
C            2.02663611516707       -1.37374347324376       -0.20702337197445
N            2.45099404551284       -2.63684844760518       -0.40795729250914
C            2.88835944608844       -0.30169071086753        0.05297599106790
C            4.26938433781094       -0.37726159309917        0.21977529154854
N            5.40873418420362       -0.43486429081089        0.37206072758948
C            2.11453806696965        0.87816242903455        0.15878281490586
N            2.69198508693827        2.08971159372789        0.43122608551630
C            0.74310531353034        0.56589373023784       -0.01707527061940
C           -0.22072601302435        1.58929104829038       -0.11653054666917
N            0.26248574061182        2.81417680861023       -0.46042431473986
H           -3.55062683905201        1.06597583408905        0.70668656520405
H           -4.87034917427553       -0.97058395018891        0.46257604232577
H           -2.19055996784687       -3.86792092894522       -0.70966560153566
H           -0.02040966246518       -2.79296811390356       -0.63689391114765
H            1.80439834571866       -3.40414486908531       -0.44673800876276
H            3.42369477084472       -2.84494877280820       -0.26243698585061
H            3.65001364145221        2.03094184860480        0.74711260951620
H            2.13131107035037        2.76825188378282        0.92530192692807
H           -0.37995357877575        3.58359275482627       -0.56145154055210
H            1.15954529664592        2.88500632068587       -0.91029669130771
