26
 energy: -52.789866308303 gnorm: 0.000863740093 xtb: 6.6.1 (8d0f1dd)
N           -4.45525190569897        0.50819583134459        1.44508093073580
C           -3.43040630079532        0.75855716421356        0.99171915398134
C           -2.19422202194407        1.16386383090343        0.47669629791008
C           -1.88603046769849        2.46849986911877        0.13036875132437
C           -0.55724258328526        2.52729519470413       -0.31437457933274
C            0.02713415599171        1.26508865741265       -0.24249188043708
C            1.42702281392135        1.11095259574713       -0.30864272192958
C            2.15692963885468        2.28537186984140       -0.64838790270289
N            2.74174917811109        3.21461940587171       -0.97404045719402
C            2.23980689404317        0.06871629125571        0.11723198207494
N            3.51681513614486        0.26675980115329        0.49276882685851
C            3.87857969089695       -0.86581760014971        1.08262889145022
N            2.98852738790758       -1.86514760741940        1.06530474665060
C            1.93702321944966       -1.36269551106362        0.42260693997156
N            0.99597366233242       -2.09854097765442       -0.09624986467894
C           -0.19483383406090       -1.96000488259685       -0.55274129356024
N           -0.62346097849934       -2.81960402883434       -1.49409966274799
C           -1.18803302446248       -1.02127042478656       -0.00973056880176
C           -2.40871656336061       -1.68180963938292        0.26931463785893
N           -3.33887046561554       -2.33630457135140        0.42046189266895
C           -1.05814566836492        0.32823293679905        0.15914005484864
H           -2.55695835691305        3.30390444533996        0.20968662265844
H           -0.04400956598159        3.42638891734958       -0.59973715253674
H            4.84201476998542       -0.97938573609776        1.54322885356051
H           -1.60389480024180       -2.90610134714764       -1.70555035085526
H           -0.00044571901462       -3.55862268737991       -1.77884512867877
