26
 energy: -48.006982431597 gnorm: 0.000885930707 xtb: 6.6.1 (8d0f1dd)
N           -4.81923037978770        1.63076559649365        0.00421004662799
C           -3.73011874609596        1.27510561455813        0.00305759712630
C           -2.35029295247419        0.91887879342647        0.00335537874222
C           -1.49883578782191        2.02475652864067        0.00419606339833
C           -0.12806678749826        2.20320774974974        0.00437952911041
C            1.00636759403200        1.39129845667081        0.00365025518015
C            2.27017978127276        1.99123372683596        0.00414833099991
C            3.27548175538870        1.01724335017292        0.00329600243361
N            4.60309034837878        1.21651964833008        0.00309648701604
C            2.63477708751508       -0.24898447013415        0.00235424271861
C            3.32698861091719       -1.46098750005613        0.00223234857198
N            3.95427513599448       -2.42478772661228       -0.00062906953500
C            1.23161816535198       -0.07088422269559        0.00238074359257
C            0.40202519171240       -1.17399870586753        0.00164276663502
C           -0.97433455806369       -1.35027725933320        0.00170613024894
N           -1.44365472444493       -2.61277352528575        0.00088186246486
C           -2.76778603380844       -2.49936989182363        0.00105960499809
N           -3.24009653771434       -1.25768796515222        0.00190117681987
C           -2.15180467394678       -0.46477288083489        0.00241354103584
H           -2.04997221955593        2.96096696922443        0.00490189352816
H            0.14773702216095        3.25421841684115        0.00529518331567
H            2.44714922119776        3.05117248795982        0.00508931205525
H            4.98118549335924        2.14645372710610        0.00506080432883
H            5.23008420643230        0.43080319653674        0.00336893616004
H            0.92356134242219       -2.12768021674492        0.00084529163506
H           -3.41634449972353       -3.35525547990643        0.00052992879133
