27
 energy: -52.514600883087 gnorm: 0.000883926554 xtb: 6.6.1 (8d0f1dd)
N           -5.13075198245107        1.81002935810710        0.01446113724485
C           -4.29705895354474        1.02078332832716        0.01070793997678
C           -3.31119920809689        0.02772708714588        0.00517121538194
C           -3.56045211412073       -1.36481030794919        0.00236134990586
C           -2.36045889103094       -2.02848993188375       -0.00481932926588
C           -1.28446779986377       -1.09610317027767       -0.00580667417699
C            0.02864182556269       -1.52312261706762       -0.00497940714695
C            0.18193345667485       -2.94213364475555       -0.00588655775616
N            0.32172289082498       -4.07969641008054       -0.00765263526284
C            1.28144678679763       -0.85562499809394       -0.00132438848899
C            2.48359385928594       -1.54379740205760        0.00083385362298
C            3.51960010821482       -0.56646444067851        0.00490238361146
N            4.83612108891870       -0.79018157054914        0.00772208057783
N            3.01591737136849        0.66726488805278        0.00559570044160
C            1.67259404279591        0.57086137588204        0.00154598269108
C            0.97892750343731        1.77829474595369       -0.00268948171204
C            1.84439575475435        2.90876688114699       -0.00387909528926
N            2.48595814522328        3.85779652079179       -0.00242456411792
C           -0.38633482591331        2.14407735572107       -0.00866084595817
N           -1.51355667968009        1.50668230936617       -0.00454008590150
C           -1.92036034225238        0.26034873795087       -0.00124040805193
H           -4.53789032297856       -1.81137720291293        0.00489849922325
H           -2.23852833311533       -3.09599793861455       -0.00881562798401
H            2.62787298373243       -2.60640082444841       -0.00029829494446
H            5.45645806838203        0.00080129562189        0.00967877110589
H            5.20460043861816       -1.72379102373952        0.00614481821166
H           -0.53822038424386        3.22345326674147       -0.01595591853802
