32
 energy: -59.934519416244 gnorm: 0.000947274804 xtb: 6.6.1 (8d0f1dd)
N           -2.18561747691765        4.46219587152914       -0.61159032605706
C           -1.61162702447888        3.48766618566267       -0.42311088117624
C           -0.84411647545489        2.30556100166411       -0.21686893010245
C            0.51327613025077        2.59832989528425       -0.16164070278945
C            1.66767513631194        1.85619225971852        0.04256878508241
C            1.98285905014595        0.50955529017980        0.05920009982213
C            3.34144620441305        0.12366742589189        0.20760394602970
C            4.41795447095774        0.96905660034191        0.46849478469445
N            5.33212918349763        1.63378647457319        0.68425830600521
C            3.45690602232263       -1.27254321027537        0.01636023520361
N            4.59208826171668       -1.98684663086148        0.08869032444644
C            2.17019336095597       -1.76893600652549       -0.24241168393153
C            1.23298095215943       -0.73325040314893       -0.18913629662973
C           -0.14481969011655       -1.01503473961428       -0.28185678154677
C           -0.38631346375676       -2.36071833644081       -0.68446552658318
N           -0.52851721902084       -3.40921743539072       -1.12686311752518
C           -1.31509000648285       -0.29077339414381       -0.03729104107388
C           -2.54934044168644       -0.95889592070196        0.16573675039059
C           -2.81459279326466       -2.31270402444440        0.38172178501626
N           -3.17631578140891       -3.37392473199624        0.64005577242155
C           -3.58626709822071        0.00040309218009        0.29490006440211
N           -4.87897336440645       -0.27898044493594        0.52190297677719
C           -3.01002072624114        1.26812539732744        0.13557765030757
C           -1.63032506053474        1.14838006794647       -0.03205613131233
H            0.70945584073546        3.66248636562610       -0.25581372911576
H            2.54728608851903        2.48047941784223        0.17449665228696
H            5.46875372800381       -1.52584904962589        0.25904887616232
H            4.58467865722038       -2.96984774139413       -0.11627635348231
H            1.94640918639202       -2.80470736114908       -0.41445437300574
H           -5.16589476465086       -1.23284187954049        0.66188635052483
H           -5.54501511342865        0.46136353583511        0.65026150360833
H           -3.55339399893112        2.19393969158378        0.16541129885010
