30
 energy: -50.893942348913 gnorm: 0.000776674898 xtb: 6.6.1 (8d0f1dd)
N            6.03651677193940        1.28513092704097        0.82015348440436
C            5.00413932780372        0.86011502749193        0.54799354414753
C            3.74497110415590        0.35364215968794        0.21001004715476
C            3.37704713781388       -0.98415937467516        0.13488771621077
C            2.00236305538989       -1.07038287727704       -0.17530658535731
C            1.41911775542934       -2.32925308051680       -0.32780861637563
C            0.12409007509579       -2.79792186283368       -0.35695857118502
C           -1.10829622800732       -2.18930986568382       -0.13087599759946
C           -1.57086594211306       -0.89115806298709       -0.03451054323716
C           -2.94834632119044       -0.66331309674856        0.29802274885742
N           -3.85473530784628       -1.58303377873221        0.71320575965224
C           -3.24322696997743        0.69315141729600        0.08579954915869
C           -4.47850412196226        1.29493562232582        0.33162292399692
N           -5.50651106035232        1.76277525708413        0.54828952735224
C           -2.08203042080887        1.32154849846811       -0.38742015218469
C           -1.02549281532396        0.40762526901195       -0.43458687120393
C            0.27698169070751        0.82739304256995       -0.78465894138230
N            0.37303875279162        1.96023219663077       -1.50386039913497
C            1.52865302915515        0.28709919363280       -0.35857723297542
C            2.61813664827522        1.12936062792297       -0.13272155314285
H            4.02369349017661       -1.82280984846944        0.31652374844697
H            2.16274709737046       -3.12079383011420       -0.35157676977194
H            0.05315285988428       -3.87522917929277       -0.45938830473454
H           -1.89849743504572       -2.92234978735042        0.00675948542480
H           -3.54137390327943       -2.45241995217418        1.10941389666079
H           -4.74852753441592       -1.23913753313904        1.02385492924534
H           -2.03539770738478        2.37914740827994       -0.57705150472701
H           -0.44796124794691        2.46921176898940       -1.77988721533772
H            1.27768824017100        2.35285289751801       -1.69937911208353
H            2.61290760579381        2.20567182994362       -0.12365030017979
