26
 energy: -47.985122476856 gnorm: 0.000526461532 xtb: 6.6.1 (8d0f1dd)
N            4.68832472390824        1.60051052451810       -0.15897087687873
C            3.89520846909143        0.77207182407766       -0.10383213199156
C            2.98180846988810       -0.28498772773591       -0.03584895194966
C            3.33830596132703       -1.65499861129664        0.00699699085715
C            2.19482348711594       -2.40575331201555        0.06670808455116
C            1.04648762275945       -1.55874429826262        0.05120282837753
C           -0.20202388488388       -2.11755378673590        0.02931464417112
C           -1.54613129165397       -1.67360124473882       -0.01864017645242
N           -2.44723405972051       -2.69945470814754       -0.07141631252006
C           -2.08853439939486       -0.37324994334611       -0.02707786682261
C           -3.51033590333707       -0.35551602315557       -0.03715217757578
N           -4.65893617894758       -0.36511443170719       -0.04276136169867
C           -1.55088970484227        0.92975350209720       -0.01246690943737
C           -2.36540182280845        2.06055657291882       -0.00406003640372
C           -1.52031150783395        3.18106617970810        0.05427893837279
N           -0.24542975091913        2.85569312409398        0.07899702663499
C           -0.15799346476695        1.50477785291737        0.03151481660367
N            1.03694320356756        1.02083628124886        0.01661848509506
C            1.57600323291275       -0.16718554797713        0.00494715667240
H            4.34822906958191       -2.02262614139923       -0.00373927424739
H            2.14959463215461       -3.47896505888975        0.11485933008299
H           -0.15598986023519       -3.20537592587283        0.03746243054351
H           -2.13864007601808       -3.65107828084557        0.00639613568862
H           -3.43566753377835       -2.51653344348970       -0.06068011397721
H           -3.43766421449745        2.08686312324516       -0.03788195344719
H           -1.82264130286873        4.21288201819131        0.07879746895115
