30
 energy: -55.703593658997 gnorm: 0.000804991863 xtb: 6.6.1 (8d0f1dd)
N            3.99825909660794       -3.07260149861021       -0.00051379828379
C            3.11323504225374       -2.34448188627019       -0.00244427948527
C            1.95362532639631       -1.51519686900118       -0.00118727330451
C            0.76531190746632       -2.25809484903538       -0.00122061387261
C           -0.57802975764908       -1.95612061654905       -0.00094154409448
C           -1.34760610374070       -0.78935648152641       -0.00071048022853
C           -2.75491914712668       -0.89959259668816       -0.00053877068744
C           -3.50042800490584       -2.07939121325143       -0.00058836979777
N           -4.15900238408184       -3.02241522883949        0.00009824210997
C           -3.34720426911178        0.39166595622903       -0.00051116107905
N           -4.66336199410204        0.65470427065352       -0.00037114915384
C           -2.29928594558335        1.32598986677708       -0.00079161684709
C           -2.48059654542333        2.70794705127522       -0.00123773574574
N           -2.66345149351552        3.84420498816741       -0.00025482728412
C           -1.04307549021228        0.64382517866233       -0.00078148411833
C            0.11854800426664        1.38290778446493       -0.00088296710007
C            1.48336032659965        1.09202912593957       -0.00083778945043
C            2.43902097733766        2.10269038824708       -0.00063078389800
C            3.70507787713962        1.47304175596716       -0.00059897173723
N            4.90863792799002        2.05951592942361       -0.00088066373111
N            3.58490947588673        0.13797367103752       -0.00084786069303
C            2.27576615460953       -0.15743030808890       -0.00093617996538
H            0.95999691763781       -3.32652676583920       -0.00145767445914
H           -1.20774718000132       -2.84208962642568       -0.00095172229638
H           -4.98844279242850        1.60546444776194       -0.00042511074261
H           -5.32954869523085       -0.09761641140484       -0.00023142528175
H           -0.06839558994256        2.45476695511898       -0.00091653972574
H            2.25628342469206        3.15963264936479       -0.00049976871418
H            5.72614952421710        1.47568923325350        0.00057826910600
H            4.99932632955456        3.05852165318641        0.00150000426167
