28
 energy: -57.035510285103 gnorm: 0.000768930064 xtb: 6.6.1 (8d0f1dd)
N            4.85687378316183       -2.39478111186919       -0.01997836308980
C            3.83936081339889       -1.87020053793944       -0.01148458308143
C            2.53880777196672       -1.28590042677083       -0.00278323130902
C            1.50599774335521       -2.21772939173839        0.03028708685179
C            0.12351665383797       -2.13627165929316        0.03657096814313
C           -0.84756350182249       -1.13853743330510        0.01734376834499
C           -2.20342069560945       -1.54796682985383        0.00912758688044
C           -2.67446237217726       -2.86466553675134        0.01779232886799
N           -3.10182147176796       -3.93104222810037        0.02528100686527
C           -3.05236874765463       -0.42008304566535       -0.01438792313965
N           -4.38645721826980       -0.41952579854671       -0.03547151017876
C           -2.21740466852146        0.73016362579599       -0.01164825393125
C           -2.82409514510245        1.99237195779040       -0.05300999400363
N           -3.51016394372155        2.91264502828712       -0.09962191328728
C           -0.86075240707703        0.33799196771826        0.00945158439451
C            0.16953185956138        1.28178364977475        0.02993207930988
C           -0.22396993999253        2.65345371512059        0.09186847855252
N           -0.51191607657927        3.75916941204132        0.16623489588871
C            1.56585505905020        1.19000002980234        0.00030538973201
N            2.24893991499738        2.35100375227739       -0.01271790660347
C            3.53128133087506        2.01473751999159       -0.05302875798370
N            3.77686403242489        0.70673780450840       -0.05902663659530
C            2.57445294885275        0.11280029794436       -0.02605007798733
H            1.87120397212156       -3.23988526766103        0.04848347283551
H           -0.33836697597108       -3.12065360065880        0.05373087831227
H           -4.89882052087419       -1.28536743117626       -0.03796887611377
H           -4.88708046316723        0.45426134257112       -0.05439504526844
H            4.31618311530244        2.74605547210697       -0.07832552930805
