31
 energy: -53.820839326855 gnorm: 0.000897442376 xtb: 6.6.1 (8d0f1dd)
N            1.73195971804640        4.32421246970046        0.04778765184331
C            1.24113483848039        3.28291170464499        0.05508885368679
C            0.62981142655812        2.00824434044875        0.05886052419981
C           -0.72809192634830        2.09987769411446       -0.21119267651834
C           -1.80212046989535        1.22500100591774       -0.15881383191621
C           -3.12416070956877        1.71199644955981       -0.27929175946819
N           -4.05074904209380        0.77638541406800       -0.12722003244871
C           -3.38048702352805       -0.37576295653032        0.07838246704087
N           -4.07189491608175       -1.53221518949657        0.22659021536664
C           -1.96445140815169       -0.19600829141116        0.05687609606670
C           -1.08379929347922       -1.26413599189319        0.07651361356230
C            0.29056805660676       -1.36483220889621        0.00648424716100
C            0.91056127002753       -2.65040040582339       -0.12481108440211
N            0.30136284755478       -3.85948469291344       -0.20783249115686
N            2.24242521988872       -2.58282410598683       -0.14531504851588
C            2.55582463208414       -1.28872876320274        0.00899320116715
N            3.88152533482146       -0.94515503184723       -0.00110223743155
C            1.41318418194925       -0.44120062617665        0.11897249087880
C            1.53196117825705        0.93482333811619        0.36148844592078
N            2.74226345062309        1.34983977023160        0.84077480729288
H           -1.03891080791341        3.11902784339193       -0.43256781687693
H           -3.41159028564342        2.73498114395692       -0.44764770645184
H           -3.63871423296517       -2.30469693831208        0.70306069888426
H           -5.06496682735270       -1.42041704508870        0.34887698952376
H           -1.58294435787136       -2.22869234389274        0.11054558112253
H            0.91256494300256       -4.62144599727715       -0.45207547097732
H           -0.63803969932737       -3.90775075683304       -0.56377713182690
H            4.11214000604620       -0.05838739624039       -0.42739653852277
H            4.46382517013267       -1.71526752766204       -0.30042847527474
H            3.32202303363080        0.68260883948803        1.32095035377862
H            2.85776026731074        2.32398518064403        1.07043725579162
