27
 energy: -52.521069791413 gnorm: 0.000732269081 xtb: 6.6.1 (8d0f1dd)
N            3.02292106663438       -3.93891463962112       -0.02576965183714
C            2.32674833721547       -3.02891597794786       -0.01990468926695
C            1.41284979408186       -1.93217430116841       -0.01258945880720
C            0.08140260349078       -2.40236269843937       -0.01246116645719
C           -1.15436005129101       -1.80561096954351       -0.00701651070140
C           -1.60459102471710       -0.47962039506003        0.00069560540087
C           -2.97122005992675       -0.17462444388103        0.00429291225747
C           -4.05379971844172       -1.05015053719144        0.00025888128087
N           -4.96813204101600       -1.74780083089903        0.00343730570383
C           -3.07356013857550        1.25961384526057        0.01186586660996
N           -4.20387461361431        1.96779980822558        0.01726272542484
N           -1.87448937849198        1.82676874205482        0.01258298988150
C           -0.94148002413011        0.85543232330407        0.00606694955474
N            0.29374681222027        1.25880333840836        0.00592636294920
C            1.47369792161309        0.71664140446579        0.00100539825003
C            2.60767942268700        1.56716215442545        0.00366314333122
C            2.56988155202657        2.96613850205656        0.01172149383204
N            2.58213482331506        4.11400450571421        0.01630037085833
C            3.77756568967421        0.78572440911039       -0.00267036170757
C            3.42561005490319       -0.54846091728302       -0.00915608638323
C            2.01851754884223       -0.68282330019531       -0.00735452865556
H            0.03518303070018       -3.48739611256025       -0.01795832566834
H           -1.97734873183551       -2.51567368086170       -0.00913449823982
H           -5.10058936707992        1.51413754318539        0.01673797708765
H           -4.14018803362763        2.97107856684015        0.02217239046857
H            4.77840905505642        1.17740233437997       -0.00229859624720
H            4.11678671268642       -1.37148596837934       -0.01470998841946
