27
 energy: -52.522093949137 gnorm: 0.000943135593 xtb: 6.6.1 (8d0f1dd)
N            4.69393340694381       -2.25843604220523       -1.30282169021355
C            4.04094224681752       -1.39024554714943       -0.92962638729405
C            3.25337957688400       -0.32041285549462       -0.49763338295603
C            3.60968348855686        1.03348595722217       -0.50984056115201
C            2.57479798469046        1.79765675089392        0.01808720202273
C            1.49235257950948        0.96388996273855        0.33860858016968
C            0.18994567937201        1.43130605990487        0.51968848457406
C            0.08920335729140        2.84789438757404        0.61089391055025
N            0.00359479979056        3.98497352752515        0.72832601796777
C           -1.05673285756520        0.78590086314732        0.39736188089415
C           -2.23406158686571        1.47245216702595        0.12224210174160
C           -3.23510376563052        0.56162765624345       -0.28218080736256
N           -4.47788840904428        0.87554034011537       -0.66979076425883
C           -2.70021582717724       -0.74681635323316       -0.21815430937306
C           -3.40984164653351       -1.90736645086503       -0.52762906618953
N           -4.04272622568812       -2.82461085753502       -0.80887930990495
C           -1.37974566091468       -0.67052581456511        0.28508582803758
N           -0.77648248083656       -1.70116398143826        0.79405443874338
C            0.44136199309899       -1.95246602763536        1.17845675666939
N            1.55700394820928       -1.54638148813757        0.64013845427280
C            1.97699689580376       -0.43894701686828        0.12353940312374
H            4.54618901095575        1.41524102084617       -0.87476423710591
H            2.57805689977392        2.86791699801562        0.11034499006535
H           -2.35904292324401        2.53922407609866        0.15232506005644
H           -4.79960371166077        1.82651385097638       -0.63375381855709
H           -5.11414901059791        0.14829023569092       -0.94967783745265
H            0.54274238245885       -2.76163801839204        1.89612829852897
