31
 energy: -49.808424774370 gnorm: 0.000633454900 xtb: 6.6.1 (8d0f1dd)
N           -6.14529745711657        0.58333303938666        0.02045782857070
C           -5.01676940662343        0.36152822805272        0.03853677372614
C           -3.64578048866205        0.09550471728636        0.06112371088078
C           -3.04332549474817       -1.16483246908842       -0.05766616000846
C           -1.65066412588149       -1.02133182566053        0.01344369019222
C           -0.83290714340634       -2.15961848269233       -0.01074877862340
C            0.50265772300495       -2.40955183766761        0.11998587535701
C            1.70215351129467       -1.65249975985939        0.17867798596559
N            2.80359403132468       -2.45024376081714        0.39163532744267
C            1.97364774594878       -0.29517420963686       -0.04186097252725
C            3.28684616522993        0.17969056188230       -0.31381731688041
N            4.41146994306667       -0.56866270400815       -0.60635180889992
C            3.31220956441671        1.57484914298475       -0.25945211457705
C            2.04026712320714        2.03089448925986        0.03865608044425
N            1.70389942820085        3.35025556374726        0.13084162770110
C            1.13895020217946        0.90929650064538        0.10798340659612
C           -0.20464354445297        1.14661420150325        0.23594080306675
C           -1.37931511878086        0.38941961986412        0.17424520666927
C           -2.62338015068197        1.04061115088761        0.20896257139795
H           -3.57083990227494       -2.09474823978260       -0.17586509168198
H           -1.42412393353489       -3.06715270430796       -0.10047435366349
H            0.72151759492433       -3.47357455340921        0.17151578830178
H            2.63129890358699       -3.39627231067655        0.69042635259185
H            3.62970911089065       -2.01511618126452        0.76794911820091
H            4.23708961788653       -1.42628363949463       -1.11116770980152
H            5.15610863485203       -0.01854603982327       -1.01156854240965
H            4.17942160852008        2.18683779735989       -0.43087565359402
H            0.86314175278594        3.59932418542149        0.62499482508058
H            2.46844137200817        3.99687097521352        0.23070718613089
H           -0.44195944046183        2.20215319518987        0.34105249478943
H           -2.77230739490538        2.10054526270449        0.31872645056069
