28
 energy: -47.453351636979 gnorm: 0.000464914016 xtb: 6.6.1 (8d0f1dd)
N            4.77562754248900        1.73290441761525       -0.01796429005930
C            3.70409485936678        1.32518141195315       -0.00893793490783
C            2.34279990381506        0.89844928336494        0.00014629992870
C            1.49145015335708        2.01582034105919        0.00866207155092
C            0.12805495608887        2.21170155064997        0.01461326050141
C           -1.00706951984391        1.39938529374015        0.01698835079653
C           -2.27908263127266        1.99478691839342        0.01660733861768
C           -3.27230090976970        1.01506623482430        0.01959222073966
N           -4.61155335742779        1.20381495843314        0.06744619258840
C           -2.62019880336772       -0.24281557779812        0.02322139415186
C           -3.28545702503915       -1.46654498884822        0.01423590843880
N           -3.87093701592492       -2.45757922028555       -0.00258879320352
C           -1.21295071388936       -0.04776431065437        0.02058094871673
C           -0.37526098953040       -1.15184976646374        0.01960749188457
C            0.99248876621244       -1.36487336337162        0.00925753567403
C            1.48697095037927       -2.68082027779179        0.00536101769618
C            2.87812664933433       -2.66297616431961       -0.00792715525289
C            3.30130851315247       -1.34361303392085       -0.01179279757970
C            2.17997465218340       -0.48567589266119       -0.00123695684332
H            2.05177972186940        2.94689021002983        0.00878525897387
H           -0.14015627831767        3.26447248070554        0.01714135237698
H           -2.46080620544513        3.05419237593153        0.01420873949560
H           -4.98401272025123        2.12097713991181       -0.10391642577114
H           -5.21819149547436        0.41478226785065       -0.07697736541927
H           -0.93292567912440       -2.08646603044667        0.02587363161274
H            0.86981834749081       -3.56059774751792        0.01112974837820
H            3.51799578517722       -3.52625704001508       -0.01424655301718
H            4.32392842366223       -1.01419909296814       -0.02110532006869
