30
 energy: -50.898148591960 gnorm: 0.000662551798 xtb: 6.6.1 (8d0f1dd)
N            5.92023925310804       -1.25338490452659        0.00577811053754
C            4.87930286590696       -0.76511106368831       -0.02182067170967
C            3.59136703250852       -0.22750004471111       -0.03899415763671
C            3.22431908310817        1.11072433588858       -0.15371139968270
C            1.82445531215782        1.23717407108857       -0.08987600093276
C            1.27168128480645        2.51301757108765       -0.12179023730381
C           -0.00028909848704        3.04959131076534       -0.00201252752952
C           -1.27209606483608        2.51312141426433        0.11954427379510
C           -1.82456653874342        1.23700664096281        0.09186328251986
C           -3.22438390897863        1.11040884619257        0.15618212393680
C           -3.59106707398926       -0.22833906486303        0.04614657979120
C           -4.87880734589717       -0.76651146198816        0.03180545913547
N           -5.91981281628430       -1.25462553466375        0.00323720336735
C           -2.40528027664015       -0.99413095830974       -0.08351014427834
N           -2.40543110858788       -2.34528198793217       -0.19653128693470
C           -1.28256941935875       -0.11682404567888       -0.02691177506788
C            0.00020673671241       -0.63694231467876        0.00414123608947
C            1.28281508214346       -0.11640185336878        0.03344078910977
C            2.40576560766466       -0.99320480552675        0.09302083480397
N            2.40630024232902       -2.34392059082954        0.21071744996768
H            3.91410392219624        1.92859766109161       -0.25768924041038
H            2.03850687602642        3.27516852155144       -0.22924790407282
H           -0.00042333666820        4.13435557748338       -0.00377482178409
H           -2.03910111815434        3.27542737021625        0.22456283331419
H           -3.91437922271992        1.92842172082092        0.25758686282404
H           -1.59891666153282       -2.81860749019554       -0.56664299632083
H           -3.29633723085035       -2.79079014022491       -0.34662596520509
H            0.00035294882744       -1.72417163834663        0.00595679828389
H            1.59985332169983       -2.81623016460534        0.58228949518403
H            3.29731622683254       -2.78870049297539        0.36229831790884
