27
 energy: -52.514269615805 gnorm: 0.000927969549 xtb: 6.6.1 (8d0f1dd)
N            4.33169752313259        2.13871761972599       -1.20976907039911
C            3.70072386956348        1.24030483638178       -0.87128439176013
C            2.93306268508605        0.15015619471624       -0.45580940851678
C            3.37940619700065       -1.17037632395259       -0.27115759767734
C            2.33465874516651       -1.94919745243950        0.19259143954857
C            1.15742331649344       -1.17176139288097        0.25087404671351
C           -0.11036195254297       -1.72245612365697        0.36659341661958
C           -0.11454512620036       -3.10994044210811        0.69438089522882
N           -0.12214640271963       -4.21539280834963        0.99673083908766
C           -1.39178533419103       -1.21840336174188        0.05920021569154
C           -2.49997414500322       -2.04987669969497       -0.11206249609279
C           -3.54671023339489       -1.24422192307587       -0.59112942560747
N           -3.19349208863045        0.02005611904479       -0.70700844379935
C           -1.90458035582005        0.12643819065511       -0.28984953976394
C           -1.43923936426651        1.41155908336225       -0.08737937936430
C           -2.37150061484056        2.43931043447104       -0.37704987357254
N           -3.07218988335671        3.32666946990422       -0.57105794539455
C           -0.16794192047994        1.88299585126975        0.40026828322751
N           -0.15279890980201        3.06614746570507        1.05203905746648
N            0.99465095370782        1.36394763801058        0.14770849535219
C            1.56847401412665        0.22212166813805       -0.07245657603955
H            4.38300418105426       -1.50712311073580       -0.45670388483076
H            2.39000762038088       -2.99709045651443        0.42129979252585
H           -2.53621019996003       -3.11015058679099        0.04465259004810
H           -4.54050634573306       -1.55889707217015       -0.85187330199221
H            0.74130072823987        3.48860086081990        1.24128082158304
H           -0.98134465850926        3.63624997560407        1.09056381301825
