29
 energy: -46.372318036983 gnorm: 0.000969928263 xtb: 6.6.1 (8d0f1dd)
N            5.69085872043910        0.16538480652821       -0.34470193155881
C            4.55764551511141        0.01898289096559       -0.21928749945749
C            3.17879604163122       -0.15015140181238       -0.05894560804987
C            2.45665670572115       -1.32738590650445       -0.24841461526976
C            1.09183776987682       -1.07448152503938       -0.02336801981751
C            0.20002041369588       -2.15266304897514       -0.00240118627003
C           -1.14818862207296       -2.31147011950394        0.17797723551911
C           -2.25843342187712       -1.44463932908645        0.14342194405250
N           -3.44715673206175       -2.06150200903960        0.35957365506513
C           -2.33895336615413       -0.07108873538772       -0.18575210288716
C           -3.52581007943357        0.48462613691363       -0.71482589431449
C           -3.38553662676406        1.85581749956317       -0.82206539867212
C           -2.15081629296674        2.20508985187921       -0.29008301782614
C           -1.45176237891493        1.03948289664470        0.07423668146094
C           -0.14410739029907        1.14662723061329        0.61581358102587
N            0.08918096563393        2.25743939496833        1.33916441015514
C            0.97809051863888        0.32517542848470        0.34347201181616
C            2.27616744813903        0.85097837429951        0.33534844657181
H            2.87561815578638       -2.27760532493500       -0.52537761750023
H            0.72292017520970       -3.09845086781782       -0.11661465826400
H           -1.44872344846258       -3.35025245915864        0.28599664690283
H           -3.49994385843421       -3.06365670279462        0.42002791794517
H           -4.29955272980791       -1.53619135554723        0.29492887900221
H           -4.37598636620949       -0.06792691070632       -1.07559317581769
H           -4.10366927331837        2.53482190650890       -1.24423203717710
H           -1.75454129986707        3.20579066565409       -0.27895399908812
H            1.02204879392489        2.48972682879328        1.63146626150999
H           -0.64289469679751        2.93652896508263        1.45589562901596
H            2.56757271363275        1.87314826720968        0.50476346992775
