32
 energy: -64.733062543422 gnorm: 0.000939641744 xtb: 6.6.1 (8d0f1dd)
N           -3.78093409612234       -3.18884776428349       -0.49145982509035
C           -2.89697073082717       -2.47879008635347       -0.32502103296833
C           -1.72851349551393       -1.67706244690937       -0.17386245945077
C           -0.58267267462409       -2.46168799548861       -0.19698081115118
C            0.78112746111550       -2.22826835765032       -0.07681164272306
C            1.61594476546827       -1.12515533328597       -0.01353086861604
C            3.01421968391197       -1.34923288776565        0.11485887078357
C            3.64620090122090       -2.58841357084025        0.23785417463927
N            4.20141659468019       -3.58998140601192        0.33823285089851
C            3.69663072690465       -0.12021257268300        0.09781720628127
N            5.01390524941717        0.07484671437564        0.20299531137617
C            2.71646987374583        0.90601508620813       -0.05361417359225
C            3.14992120250719        2.23696697947206       -0.06343531073091
N            3.70604070571948        3.24255373692672       -0.03061826527338
C            1.43212713504355        0.33243450248702       -0.11425627450054
C            0.27984282019965        1.12251632853241       -0.23159275120721
C            0.50818809386079        2.51583663299825       -0.44910073911380
N            0.67388829617272        3.62414373871693       -0.68751828623396
C           -1.09608348069205        0.88749011571545       -0.12522196793779
N           -1.84153305464161        2.00866261379447       -0.08781921134329
C           -3.11581724024565        1.66620743295465        0.06808862741092
N           -4.09493994503235        2.56135334719733        0.17803128078783
C           -3.26043026532243        0.23721076273656        0.09589643774586
C           -4.50846572274452       -0.35584923097334        0.28466592734743
N           -5.59102824690217       -0.69206517608521        0.47758762790158
C           -1.97098893086863       -0.29607476949226       -0.03848153431784
H           -0.81484932734718       -3.51786260708836       -0.29802177616300
H            1.34844728785829       -3.15452006261344       -0.03399956968491
H            5.63828417044055       -0.70586963258240        0.31372536702087
H            5.38507124107671        1.01053212466632        0.17752806753807
H           -5.04776234702329        2.26497400142358        0.30332760988320
H           -3.86378889853663        3.53903910390040        0.13549793808516
