29
 energy: -51.169601116890 gnorm: 0.000579931886 xtb: 6.6.1 (8d0f1dd)
N            3.72039842216414       -2.94722328927564        0.00713220402844
C            2.76162636902363       -2.31852439134477        0.00189666849568
C            1.52021962307414       -1.61926781133248       -0.00117532687859
C            0.42019334370118       -2.48593896501295        0.00337430976794
C           -0.94471812722124       -2.32003722829553        0.00287876453650
C           -1.83843158646956       -1.24540126673970       -0.00032928570407
C           -3.20374322552861       -1.50720070290075        0.00273189182141
C           -3.92995553911644       -0.29765453712702        0.00175434744800
N           -5.27673722678267       -0.18409265350382       -0.03693960728117
C           -3.01010766671196        0.74952572173102       -0.00276016761691
C           -1.70137865259263        0.23430427090225       -0.00335892582699
C           -0.60520423689209        1.09346781914165       -0.00210264228819
C           -0.97423991817651        2.46934922087907        0.00614962991028
N           -1.25788989759221        3.58148517313235        0.01771599097344
C            0.79819216534070        0.93477641790014       -0.00577209570333
C            1.66289017575628        2.02712671092119       -0.00784937938756
C            2.97778293231183        1.51381370935852       -0.01160154296609
N            4.12577804469847        2.21180011990466       -0.04838625376526
N            2.97811644621025        0.17681732252533       -0.01013892096296
C            1.69787764987031       -0.23648072317695       -0.00745735861297
H            0.72771699813201       -3.52772775983242        0.00689447157707
H           -1.47859407547321       -3.26623302619411        0.00527976641446
H           -3.64470695947028       -2.48745857857279        0.00566564775168
H           -5.84617358620894       -0.99646782648168        0.12015824272723
H           -5.69614270445346        0.71844317054520        0.10020214857756
H           -3.26574051535419        1.79222940538375       -0.00575990183478
H            1.39737070587532        3.06580666667456       -0.00815600668235
H            4.11996093063233        3.20580040549568        0.09020755345012
H            4.98701150635340        1.70239518519521        0.04371230923136
