26
 energy: -52.791886458766 gnorm: 0.000693934090 xtb: 6.6.1 (8d0f1dd)
N           -3.46658850342198        2.75595978449597       -0.25179538720676
C           -2.61955150115621        1.98820404617994       -0.18070936383426
C           -1.49523526701178        1.11408148068447       -0.08374469555823
C           -0.31350267055230        1.86185236405047        0.09588144983291
C            1.02792116033093        1.58269952508791        0.23836806563906
C            1.79121311741931        0.41453750728431        0.21373967439154
C            3.18640451292113        0.41303934031671        0.13656132029938
C            4.07003632796780        1.47248924244714        0.32304122857221
N            4.82189947743431        2.33142146236281        0.46154158409104
C            3.56813177023856       -0.93054335384731       -0.22050274880682
N            4.80728812349689       -1.35239889219611       -0.45721694911371
N            2.51274942315275       -1.73539941598010       -0.30430600735282
C            1.42126004714844       -1.02031071969445        0.01194752848675
N            0.30792908240649       -1.63503576497991        0.22607710318473
C           -0.95496281547871       -1.42244374747869        0.32045431842668
N           -1.76009144764244       -2.43714591770432        0.69686010991065
C           -3.00099715495298       -2.08858165451185        0.42760795852843
C           -3.11131395380108       -0.77415751246742       -0.08437672286935
C           -4.31222413690655       -0.20841029785281       -0.52210149248831
N           -5.32895099299803        0.17322493969934       -0.89485125566447
C           -1.80322551072539       -0.24341168342156       -0.08217777278906
H           -0.52178619283756        2.92800186534140        0.10821513453665
H            1.64787230926559        2.47352198825904        0.29429866342114
H            4.94688344044154       -2.31742486692172       -0.70478152005701
H            5.59465210199188       -0.73644008176311       -0.34872282294104
H           -3.81484784543407       -2.77067650038734        0.59711906946025
