31
 energy: -53.818910083083 gnorm: 0.000902511104 xtb: 6.6.1 (8d0f1dd)
N            2.23376529288197        4.41744251502997       -0.05199659275104
C            1.64216374606215        3.43261801835565       -0.03100996578636
C            0.93608957109285        2.20558281740890       -0.00747511116749
C           -0.44317043317950        2.34939417529438        0.05208991618297
C           -1.51076413181370        1.46403967659416        0.09266440948648
C           -2.81730863317956        1.98625292003871        0.27524196365830
N           -3.75383047150386        1.05767382342528        0.29262726830784
C           -3.11634122811794       -0.11349703465707        0.07654365178032
N           -3.87190607293589       -1.26147828021095        0.05408100013239
C           -1.71335938200763        0.04117442506663       -0.07511020838288
C           -0.86043296360135       -1.04257743160967       -0.39037730904479
N           -1.48995012556163       -2.13765493655449       -0.93109665078763
C            0.51435225111400       -1.20145624138808       -0.12843824135540
C            1.12813484025855       -2.47737812959253       -0.04563499451158
N            0.55218858628661       -3.71786409161579       -0.11326130169764
N            2.45884758244069       -2.42151780499466        0.16006213251269
C            2.77545134456702       -1.13342609144601        0.20292588399808
N            4.05691724570762       -0.76277644068801        0.36177478056646
C            1.61921783203496       -0.27031024692650        0.05928083695881
C            1.79238380379618        1.08875168175815        0.03653961045847
H           -0.76125516273941        3.38726303522688        0.11438896016132
H           -3.07140199039629        3.02290231209078        0.40691282173817
H           -3.44589294448344       -2.08676488260111        0.45087254818266
H           -4.81170902520408       -1.08577952177386        0.38315224424097
H           -0.90097344610032       -2.78375059711384       -1.43298818564792
H           -2.39202180434647       -1.96179568232867       -1.34781795937872
H            1.19748187268861       -4.44406165926958        0.16470253856597
H           -0.37376300354148       -3.80876177493310        0.27735883097471
H            4.30745600706168        0.18666625357095        0.56709614132867
H            4.72745185544595       -1.49138327870672        0.53007517842748
H            2.83417555557977        1.39593786125602        0.08933519725354
