31
 energy: -60.212916456909 gnorm: 0.000421463978 xtb: 6.6.1 (8d0f1dd)
N            3.56146208560605       -3.11804718887154        0.00185278989879
C            2.72104336761590       -2.33880103894050       -0.00080108504140
C            1.58324564118925       -1.47929158773041       -0.00161771012977
C            0.41320428441351       -2.25529084742073        0.00123282685531
C           -0.94458541844602       -2.00332936256530        0.00158303164037
C           -1.73126353597975       -0.85612031611591       -0.00062295504550
C           -3.13838153429581       -0.95408689836775        0.00083962614796
C           -3.88798759607573       -2.13138933124185        0.00451721594322
N           -4.53744944408759       -3.08050441628957        0.00687607918329
C           -3.71814246792231        0.34348947987436       -0.00183643852309
N           -5.02903317523859        0.61729648877066       -0.00136357470231
C           -2.66454038744838        1.27803600672542       -0.00496543907885
C           -2.84037076730401        2.66254063366757       -0.00811616462432
N           -3.04453602662964        3.79367526755228       -0.01065274586169
C           -1.41802798181340        0.59157618875349       -0.00438124336208
N           -0.32933813752340        1.30142980619554       -0.00714437511419
C            0.96056025004360        1.09471792256018       -0.00783025670912
C            1.78789892916566        2.22464207430409       -0.01159325086385
C            3.12627147084123        1.83396454714689       -0.01177638959027
N            4.20924805745615        2.62115519181833       -0.01484251593708
C            3.16523242064164        0.40294495789939       -0.00798091041638
C            4.40547586990256       -0.24140827944433       -0.00704632561412
N            5.50066995561063       -0.59353600227708       -0.00833360751998
C            1.85497985843549       -0.10775599849536       -0.00549633245349
H            0.63969908806760       -3.31760266676020        0.00374462497087
H           -1.54383699524132       -2.90993758575220        0.00423600760903
H           -5.34421418139348        1.57213665136873       -0.00342102968582
H           -5.70387101123264       -0.12823298067159        0.00093910546241
H            1.41646038740453        3.23075233009515       -0.01389791453472
H            4.11333034691695        3.62088006222712       -0.01732279790310
H            5.12823323912131        2.21050719618510       -0.01452577990011
