30
 energy: -60.480659319832 gnorm: 0.000899050482 xtb: 6.6.1 (8d0f1dd)
N            5.11627362322292       -0.13827556442734        1.00673868777263
C            4.07680216689254       -0.49020541991468        0.66677307583214
C            2.87323864567669       -1.06388640333140        0.24225190944928
C            2.81045051287058       -2.39301362680389       -0.18414738676290
C            1.50972673477668       -2.69074649565968       -0.56800240940240
C            0.69411247198852       -1.56715257627520       -0.37332999658866
C           -0.69387361083485       -1.69244477569366       -0.33516210775021
C           -1.20766343904602       -2.98574873745428       -0.63659736591131
N           -1.62541731714608       -4.01475322938281       -0.91812341274381
C           -1.70439872745871       -0.81924984385325        0.08740332277578
N           -2.90280873380143       -1.31895115548798        0.40663505962078
C           -3.66702435110831       -0.25191636968147        0.69615270579790
N           -4.92263295319783       -0.35800435099579        1.11710529394525
N           -3.06068348521664        0.94151752139171        0.51249856008953
C           -1.81490165078941        0.64969825159881        0.15119549382970
C           -0.98026058813409        1.69010230042662       -0.29972818624260
C           -1.72469898345054        2.86439547705366       -0.59169400238333
N           -2.29704707056094        3.82096833267104       -0.86146061392137
C            0.40511660662403        1.80546947392234       -0.43353110293691
N            0.87633003212254        2.94667559011534       -0.99282798630384
C            1.42991087172029        0.91291441072714        0.06583741747844
C            2.51542744400145        1.68051134619510        0.57389544258407
N            3.28522539898297        2.40021242781525        1.02697163953151
C            1.58869666091036       -0.45732277865094        0.05005113978274
H            3.64652042839902       -3.06767391891636       -0.20054717160844
H            1.16074765615630       -3.65045536714710       -0.89880883546821
H           -5.45413571362474        0.47645141406812        1.29002460391532
H           -5.33492934741545       -1.26986383767034        1.20353106341572
H            1.86032711575482        3.15849096961913       -0.97318993265847
H            0.23473997428520        3.69511293544159       -1.20306687723655
