31
 energy: -60.202886125996 gnorm: 0.000840794109 xtb: 6.6.1 (8d0f1dd)
N           -5.06407718799788        1.33213563079415        0.78252322568362
C           -4.24346205807216        0.63360281526190        0.38409006652350
C           -3.37167827661142       -0.35024129402413       -0.09632158880427
C           -3.88041672411292       -1.55650672245072       -0.66804430942270
C           -2.83412942448347       -2.35264143286569       -1.01312319441179
C           -1.60365289959655       -1.73210152313094       -0.60325897457460
C           -0.47846747412542       -2.49826630489836       -0.55990340227810
C            0.81576939343416       -2.38753750781908        0.02859826937509
N            1.37430477668456       -3.59006433893134        0.33395270546334
C            1.59690234331348       -1.24903208582326        0.23527832198281
C            2.87092939205599       -1.50601954391886        0.80271719384272
N            3.85626545633417       -1.75655196182265        1.33683309495759
C            1.39113602060954        0.12022319925816       -0.07540410704271
C            2.45530591364433        1.01150470269770       -0.23288103003828
C            3.82111622135866        0.78250479896672       -0.38808631405020
N            4.95234901671512        0.70197956643987       -0.57799873836567
C            1.87427385983890        2.32591174028768       -0.32945023116411
N            2.53816105341624        3.46401138126771       -0.53674971847313
N            0.55875078657693        2.27211849634711       -0.18877742052454
C            0.19663913391741        0.97491973324751       -0.07013021165990
C           -1.17041846420294        0.74469447632254        0.09628041002548
C           -1.85325201003254        1.96944998140143        0.35664740439756
N           -2.36579054178220        2.96662915713794        0.59052823822732
C           -1.96899260414401       -0.39035715064540       -0.10441508248300
H           -4.92671967760464       -1.76596421272197       -0.79270158497303
H           -2.89451083677150       -3.33192342430754       -1.44978211248129
H           -0.64303614563467       -3.50009165176183       -0.94996938050255
H            0.85437612814287       -4.44007747916898        0.21945064402461
H            2.29847894488702       -3.63773389339105        0.72769998929184
H            3.53959299380281        3.46398959980072       -0.62134336332602
H            2.02106170903981        4.32519461025090       -0.56981698281958
