28
 energy: -46.646086874513 gnorm: 0.000727420367 xtb: 6.6.1 (8d0f1dd)
N           -5.30750571602941        0.21651539414869        0.42963448774268
C           -4.19929472336711       -0.03509768621754        0.25413131577650
C           -2.83877889734963       -0.27763289330215        0.05450843268234
C           -2.19385334653443       -1.49801647098596       -0.04015775847793
C           -0.79936680187412       -1.29377797107565       -0.16576166269353
C            0.00594513243416       -2.41999407135801       -0.27363062667862
C            1.36751594913924       -2.69070753955679       -0.23656381268498
C            2.47827530689923       -1.90232699114393       -0.00831934358793
C            2.68694500025212       -0.53388137085126        0.12126036468563
C            3.97622655797458       -0.04343269515559        0.45688951130728
N            4.03328991380064        1.27696002722103        0.48177568768314
C            2.82062195502258        1.70914867681336        0.11300656619645
C            1.91204664301260        0.66389480091291       -0.12241255117416
C            0.56768775560881        0.92452123199601       -0.48908039232574
N            0.35147704517574        2.12154544830441       -1.07104455267050
C           -0.58984451638778        0.15221002849719       -0.21696654770039
C           -1.85761726898188        0.74734694210115       -0.07005389897390
N           -2.17982083063139        2.08844035786087       -0.02232873439480
H           -2.67307632257168       -2.45847344066623        0.00513466435648
H           -0.59191797260867       -3.32493768646043       -0.34127444666923
H            1.59515389732655       -3.74746849967471       -0.32256401202475
H            3.39644633162053       -2.46868081730588        0.11967631296249
H            4.84118015837180       -0.63916745391557        0.68715858515022
H            2.62606829917429        2.76844490360813        0.11013511718620
H           -0.56055379122165        2.34841126164353       -1.43068398914901
H            1.13520265782800        2.69355395140332       -1.33206955794225
H           -3.12412148510853        2.26059387648221        0.29762093334581
H           -1.50008007237662        2.69394637737668        0.41635667597306
