33
 energy: -64.446401089844 gnorm: 0.000774792129 xtb: 6.6.1 (8d0f1dd)
N            5.46916407081644        1.13758680544826        1.40949361064468
C            4.66907884121179        0.39747423773706        1.04312923465703
C            3.67312049503213       -0.46774240453648        0.58803036936343
C            3.79827045869821       -1.83003778584156        0.35107222071496
C            2.58516354227955       -2.31310727370654       -0.13960777204775
C            1.64447188955935       -1.27553279190376       -0.19292308550640
C            0.27958718496169       -1.53356885024048       -0.38402470811976
C            0.00738214005298       -2.86378234510649       -0.81134748404049
N           -0.17105232310579       -3.89665657083427       -1.27561025549312
C           -0.85987454858224       -0.76380898851611       -0.12045306093475
C           -2.10346507177756       -1.37855601725690        0.18515057684096
C           -2.39036165283531       -2.72652143898343        0.41746352395571
N           -2.74438046292234       -3.78745118760138        0.68345255163331
C           -3.07409825029938       -0.37941224886620        0.40899013778546
N           -4.34003777595977       -0.56820511398536        0.79563938778311
C           -2.45378071033597        0.87649965562796        0.15944668169485
C           -3.13905675433342        2.08013131435286        0.35157612160621
N           -3.77406689070067        3.00609994555396        0.59708451226595
C           -1.09761504960004        0.67746803039941       -0.15493557046085
C           -0.31162558446185        1.75580494787676       -0.63301662285637
C           -1.08697244615281        2.78466697974514       -1.22903838924138
N           -1.65097086222885        3.59635592167025       -1.81343513254842
C            1.05886452639070        2.04510198018979       -0.56661999736633
N            1.46659414113126        3.25065674091053       -1.03946142407745
C            2.10174806125816        1.28672587694838        0.03320166332662
C            2.35160052796712       -0.04424484642655        0.19295035940635
H            4.68420658227693       -2.41345467746742        0.52151667412665
H            2.38423908704079       -3.33904577244553       -0.38452086079777
H           -4.68204786222847       -1.49973527239273        0.96172484595110
H           -4.94384336766987        0.22110752019052        0.95189601430739
H            0.80404403659394        3.90629782827817       -1.41747377271058
H            2.42809740221830        3.52856271594206       -0.95889775955719
H            2.94406102654796        1.91396120654283        0.31757917072816
