27
 energy: -47.722527024152 gnorm: 0.000684526792 xtb: 6.6.1 (8d0f1dd)
N            4.84677663416882       -0.50307588945754       -0.78604760473175
C            3.86892445778414        0.06523731634813       -0.57623579819872
C            2.66828000260525        0.72623231906503       -0.31760874876291
C            2.48815163998932        2.10128578551707       -0.19913747945496
C            1.14887921724930        2.34625642594738        0.08197540160754
C            0.43378540493891        1.13685029842377        0.12903580063644
C           -0.96458596457325        1.12780633328499        0.28362366738641
C           -1.51004665606912        2.41793847670240        0.55539550934366
N           -1.95530048070644        3.44256953894791        0.81258126373971
C           -1.93669601084511        0.14767815710185        0.10710746056889
C           -3.30314282585435        0.46073814085919       -0.02029231971246
C           -3.99456094517105       -0.65671863875253       -0.47946722651466
C           -3.11462806485057       -1.72326992427936       -0.60156506677079
C           -1.83061351283970       -1.31275058840927       -0.19473211785884
N           -0.90352369391222       -2.20482116932410        0.00941694759372
C            0.36608457834204       -2.24287870463127        0.31489590337243
N            0.77311591147394       -3.44388646552735        0.81815126639979
C            1.39547514110537       -1.29898168791032        0.05883983591403
C            1.41249621799309        0.06377967740605       -0.08890877132177
H            3.25799708302233        2.84286212033216       -0.30763030903922
H            0.71683823445426        3.32061838364043        0.21500182695517
H           -3.73534295262677        1.42594705042240        0.16838870882463
H           -5.04712239676055       -0.68644446277644       -0.69533740465339
H           -3.35477942452605       -2.72365892142323       -0.90581709691078
H            1.74925095382146       -3.67685263889535        0.86019759159013
H            0.09935393125587       -4.18995223294078        0.83875938451966
H            2.37495402913449       -1.76009313257485       -0.03881879672187
