28
 energy: -57.029794350744 gnorm: 0.000696350958 xtb: 6.6.1 (8d0f1dd)
N           -4.25419931626161       -2.77092134249282        1.29406818587287
C           -3.80200611015572       -1.77181974935299        0.95362217484271
C           -3.24150975912127       -0.56282711942090        0.53273754402294
C           -3.87797748028919        0.66947507438208        0.41364937398279
C           -2.97598331109168        1.61729051329689       -0.08332526778368
C           -1.72051325659503        1.02667960974549       -0.24581131833547
C           -0.53065792843599        1.73830459952154       -0.41801512517445
C           -0.69833659169965        3.12803542920067       -0.69485868109928
N           -0.88530568181121        4.22386742390815       -0.96824879093863
C            0.80143073110508        1.39411382350903       -0.16883672959797
N            1.64690076940322        2.43512186522537       -0.02908907183303
C            2.80770927533866        1.97540025483483        0.40618782075932
C            2.80838354632904        0.57664188939020        0.53617725936524
C            3.89264948952833       -0.17108214777548        1.00302519707280
N            4.81002281060234       -0.71430504923067        1.42887257339438
C            1.52190751157039        0.13455013269770        0.12025090635563
C            1.23870038514256       -1.18838067322124       -0.20549515210838
C            2.28454653026800       -2.13722232862075       -0.11934117543502
N            3.07560664684945       -2.96917644274389       -0.12015663810831
C            0.01062053039984       -1.76123040138835       -0.68358719966464
N            0.07773369908770       -2.84838678794050       -1.47787875214491
N           -1.18355008241297       -1.43795001997878       -0.26913310372921
C           -1.89838391740550       -0.41782342750562        0.05010133018597
H           -4.90602100051332        0.85826810728983        0.66368807434672
H           -3.20047164548528        2.65165878234858       -0.26526579888289
H            3.61961837307425        2.64332705588170        0.62638150841829
H            0.96102862888882       -3.29551422514293       -1.66097319490692
H           -0.77159299890796       -3.35612179401774       -1.66423914167996
