28
 energy: -52.244710856613 gnorm: 0.000698517198 xtb: 6.6.1 (8d0f1dd)
N            2.98511178616758       -3.95492903687532       -0.00117198634349
C            2.29406349596213       -3.04066538560697       -0.00080714058865
C            1.39453829358594       -1.93369021361729       -0.00072158891363
C            0.06716030308649       -2.36943942310551        0.00085644805410
C           -1.16965387947274       -1.74186873485081        0.00166938359795
C           -1.59631102067619       -0.42293306685967        0.00111494090380
C           -2.97934884745625       -0.12037820989439        0.00247958503158
C           -4.02755522765065       -1.04095134720044        0.00512580370348
N           -4.91924528522470       -1.76766329875741        0.00327530335890
C           -3.16598567295534        1.28789151788363        0.00138033812239
N           -4.35350975628276        1.91428780601514        0.00266541476500
C           -1.89751421110537        1.88083350107423       -0.00026389618107
C           -0.90722846657712        0.89064396036659       -0.00047710403869
N            0.34587698073654        1.27931965650687       -0.00193170679040
C            1.50745057691007        0.71122127258101       -0.00258136708863
C            2.66528581198735        1.55868248357825       -0.00439246495927
C            2.61870335793228        2.95563658079965       -0.00586053192755
N            2.59428667563728        4.10395991384188       -0.00518210793961
C            3.80986778223062        0.76655798923903       -0.00481965545503
C            3.42872571820673       -0.57338588439299       -0.00350992230716
C            2.03191785999363       -0.68412950276083       -0.00211211706752
H           -0.00946386236064       -3.45263824254033        0.00164462418941
H           -1.99891030746136       -2.44446616535704        0.00299978999586
H           -4.39807157631972        2.91721859177910        0.00001935730265
H           -5.20689576582667        1.38303478953400        0.00213891625031
H           -1.68803301652015        2.93314507971983       -0.00116431232816
H            4.82056204768455        1.13222443010975       -0.00610803909961
H            4.11144958846862       -1.40373777070993       -0.00362003514715
