25
 energy: -39.489005767573 gnorm: 0.000590512949 xtb: 6.6.1 (8d0f1dd)
N           -0.00203805953959       -4.39297506702800        0.00777601716048
C           -0.00149429424679       -3.24560143051991        0.00613965813437
C           -0.00081952518709       -1.82401983256581        0.00409481247195
C           -1.29302354963359       -1.28879000023017        0.00362589084656
C           -1.83656505929879       -0.01940351350773        0.00191766451325
C           -3.24335970363601        0.13155822535199        0.00201413066537
C           -3.57085719642270        1.47673781149311        0.00014824137486
C           -2.39064716902375        2.21171953640583       -0.00116891510791
C           -1.28259845798582        1.34159917887400       -0.00016401081557
C            0.00092325907909        1.86308277476837       -0.00119834275893
C            1.28395932288860        1.34037943916827       -0.00074739654872
C            2.39282881137000        2.20945238597236       -0.00225098492911
C            3.57234341991685        1.47335050323386       -0.00148643050443
C            3.24356995991169        0.12848070865600        0.00051049335350
C            1.83663172253220       -0.02114104376646        0.00106519303748
C            1.29188263741364       -1.29001878260056        0.00301797588480
H           -2.05618409435806       -2.06492009809131        0.00492309250477
H           -3.94044465158731       -0.68694858492276        0.00334723511314
H           -4.56538146117471        1.88407081597596       -0.00021993141297
H           -2.32108529175784        3.28475948768512       -0.00272861321538
H            0.00144237117252        2.95085819780773       -0.00275166971844
H            2.32428368462676        3.28255694743525       -0.00376470994478
H            4.56725278030514        1.87973948648051       -0.00230657999565
H            3.93987688975736       -0.69068748665848        0.00151036564918
H            2.05431165157816       -2.06686787341716        0.00394824244215
