30
 energy: -50.091119791158 gnorm: 0.000739107890 xtb: 6.6.1 (8d0f1dd)
N           -5.80923012063705        0.61167591104009       -0.78790252195900
C           -4.72267855823510        0.37648727786694       -0.49221098871690
C           -3.39960061302507        0.10475716520498       -0.13861384676387
C           -2.93146440906258       -1.03402888077315        0.52565073628203
C           -1.53942601203302       -0.94793507609098        0.61902333719040
C           -0.74465277008404       -1.98247079611042        1.15992325747717
N            0.36929306882549       -2.42567721997744        0.70588453060272
C            1.28506475228025       -2.01571014664356       -0.14270226857684
C            1.88470480744381       -0.78305758311478       -0.24526619570140
C            3.24834399141016       -0.62763908123678       -0.65841136941009
N            4.05752703597928       -1.61932179032000       -1.12610559637537
C            3.66103270046308        0.65879153920613       -0.34050235053602
C            2.58119020219196        1.36186022289751        0.19967735984493
N            2.66014172890780        2.68233270853757        0.60405694807464
C            1.42026227426459        0.53699119884651        0.19992934789200
C            0.11197630424054        1.03427980259560        0.20017542669529
N           -0.03770256075376        2.38445607562861        0.30799381040139
C           -1.13085414400281        0.32309691669241        0.07155771609152
C           -2.30163199355067        0.94808427400970       -0.37786648382012
H           -3.52938995817463       -1.86779110539494        0.84506328204335
H           -1.17494467508877       -2.58445146047701        1.95816471328949
H            1.75119387968486       -2.84912825936848       -0.66593579985758
H            3.62742335678208       -2.42011236385161       -1.55689983429985
H            4.94381899676149       -1.33796587240101       -1.51013330670343
H            4.65129095992664        1.05439050637842       -0.47878415967004
H            2.14210858280984        2.89944050504870        1.44487287752405
H            3.60894133588451        3.03060406267952        0.63329957499765
H            0.72123086534006        2.97720856030585        0.00882241162958
H           -0.97103836772475        2.74698857317603        0.20927949646047
H           -2.38387015582564        1.89461091294498       -0.88536063120778
