30
 energy: -56.483591260986 gnorm: 0.000470338439 xtb: 6.6.1 (8d0f1dd)
N            3.60742461825503        3.51934491458149        0.25194740217257
C            2.76737042360470        2.74802004212731        0.13792506081775
C            1.67838599746367        1.83802774929966       -0.00618399205633
C            0.48961734298860        2.53152098226251       -0.23888562818607
C           -0.84675043156201        2.17909886985325       -0.29474047235990
C           -1.56890828678785        1.00795190727724       -0.11150337648450
C           -2.98996614572603        1.09305899287449        0.00667150734375
C           -3.73141232375691        2.27874647392258       -0.04641062520370
N           -4.33631007238720        3.25400222943871       -0.09459877010759
C           -3.51773852491452       -0.17554623019470        0.22445923190595
C           -2.46624948563140       -1.09761393849260        0.18521511018277
C           -2.66442939124923       -2.45238791909844        0.48637026421213
N           -2.91462801531592       -3.52455823206367        0.81254844086883
C           -1.23664562786187       -0.41033278866100       -0.03105602468636
C           -0.03886120502059       -1.11237491015994       -0.22778058958575
C           -0.23527707958251       -2.47562114756100       -0.60162511320431
N           -0.34329702336435       -3.53263539966087       -1.03210930833827
C            1.32054905978900       -0.78120312925119       -0.13573780562388
C            2.28814371421295       -1.79458277561140       -0.13413890558219
C            3.55472205233510       -1.24692222780506        0.12492938318826
N            4.70659933982748       -1.92945078939327        0.23536943561581
C            3.39681038905432        0.14463016208671        0.24737648767292
C            2.05388732890600        0.48827084638586        0.07098177088927
H            0.65060210324991        3.60003766110786       -0.34565886754181
H           -1.49897581596345        3.03622859924137       -0.43960800697221
H           -4.55075488545175       -0.41297011816446        0.39934187420206
H            2.09178459387114       -2.84197929607945       -0.26400935582102
H            4.71946384817657       -2.92567369405228        0.11119788161217
H            5.56491428330560       -1.44972286011908        0.43781028743640
H            4.19591459843481        0.83979220811018        0.42598273653313
