31
 energy: -60.984987782386 gnorm: 0.000484744879 xtb: 6.6.1 (8d0f1dd)
N            4.56367033126668        1.45101286424823        1.74296031066053
C            3.87771728271193        0.71025054943751        1.19586869189603
C            3.06544874516588       -0.27576542540254        0.62322570386345
C            3.42670590922434       -1.62951034522939        0.56418715017321
C            2.37277889992906       -2.34588558067671        0.02411927682514
C            1.27591920497001       -1.48392702950035       -0.18686094204571
C            0.00546195338591       -1.99921752903812       -0.45772180504511
C            0.00767681690650       -3.35967220854342       -0.88400426561711
N            0.00927928214334       -4.43205177767869       -1.28690679650251
C           -1.26589190329081       -1.49084578959117       -0.17812497552888
C           -2.35653449832608       -2.35876167521846        0.04047842561677
C           -3.41065693899514       -1.64807117968626        0.58762780103606
C           -3.05636088585138       -0.29237166800431        0.64409189235845
C           -3.87000066604699        0.68932588205731        1.22220162533535
N           -4.55711610350764        1.42608941565377        1.77328351208724
C           -1.74034202765372       -0.13472925431579        0.11798037201756
C           -1.26968682340301        1.09922861517522       -0.33231915962599
C           -2.26549640050192        2.11296885047737       -0.42116701623259
N           -3.02547719071559        2.95756349957125       -0.57936691778692
C           -0.00533537357084        1.55913089266695       -0.79444064518593
N           -0.01099732842803        2.65388700135196       -1.59439679028546
C            1.26456983053029        1.10612259469201       -0.34080228428203
C            2.25440323422552        2.12505706816729       -0.43663935792999
N            3.00817173392268        2.97432332816942       -0.59956388017182
C            1.74497097480015       -0.12526442657216        0.10622874952451
H            4.36740881144099       -2.02946724915298        0.89294937337315
H            2.35515485456580       -3.40785495554210       -0.13384164117020
H           -2.33419711851964       -3.42063351282108       -0.11750255551918
H           -4.34694116527403       -2.05311009163813        0.92278605515698
H            0.84930021631180        3.13970250495456       -1.79062862703541
H           -0.87522092081582        3.13502109578910       -1.78483165655944
