27
 energy: -52.511690274748 gnorm: 0.000695265502 xtb: 6.6.1 (8d0f1dd)
N            4.73849201266649       -1.80062003342560       -0.83953806688724
C            3.97018290023803       -0.99415241961287       -0.55908391370950
C            3.04627004243109        0.00210089998337       -0.22834245235663
C            3.37528490813576        1.32586615886405        0.12964155141395
C            2.21453543174318        2.00703938041747        0.40540235603073
C            1.09028182093162        1.16210376218464        0.18617741140615
C           -0.18767995785390        1.70522376216056        0.16280704767350
C           -0.21608820643439        3.08607287714050        0.51763232930766
N           -0.28707493978973        4.18699196356118        0.83219837876997
C           -1.49562470875491        1.24406532712062       -0.20916386432378
N           -2.34874904302543        2.21066796718623       -0.63446167019610
C           -2.03709195686651       -0.04878907726583       -0.08989646271864
C           -3.45144100188003       -0.12165786713720       -0.24052249111598
N           -4.58922747709718       -0.13218256448162       -0.38431375990452
C           -1.50123671683738       -1.31238177220210        0.19186046297076
N           -2.36856336351367       -2.31008566886853        0.43862526658861
C           -1.62718799978679       -3.41401944331135        0.49049395740144
N           -0.33405237551946       -3.24674170853815        0.24049560670473
C           -0.16760836968611       -1.92052391750813        0.07466757680359
C            1.10177848240396       -1.43741329864545       -0.19789887373322
C            1.64327828477892       -0.16941509730208       -0.15119123170122
H            4.37342150678354        1.72021104303736        0.17776860150525
H            2.15693847797306        3.04009891350926        0.69160756885450
H           -2.07573174122451        3.17903341123085       -0.63030479208979
H           -3.32278414148007        1.99083092954157       -0.76778318495613
H           -2.05163422791761       -4.37557491259084        0.70853050795789
H            1.81812620698194       -2.23441051094785       -0.37538007689595
