27
 energy: -47.727511610703 gnorm: 0.000424810059 xtb: 6.6.1 (8d0f1dd)
N            1.77325591465225       -4.29109258813917       -0.00681057825091
C            1.55522741626156       -3.16459957081855       -0.00478808478670
C            1.25959994164018       -1.77496824936569       -0.00296127014166
C            2.39847398166191       -0.97272081578806       -0.00109502524910
C            2.61449335544706        0.39334115094751        0.00130177917979
C            3.93478542827062        0.91447813381651        0.00249065042882
N            3.96903258829891        2.24080168282901        0.00502293065427
C            2.69739506334905        2.64689578677249        0.00569949151393
C            1.77406810920776        1.57944770407299        0.00348273918889
C            0.40663246228227        1.82295057369805        0.00374178064462
C           -0.72091372381042        1.02446384996316        0.00143001991695
C           -1.98990003847748        1.63451145831627        0.00213098644291
C           -2.98977574715903        0.66894432624078       -0.00110932006198
C           -4.37398807243221        0.86896010077045       -0.00212001277899
N           -5.51736474283194        0.98111347172208       -0.00213691550770
C           -2.37266743959136       -0.60807414197396       -0.00388388149866
N           -3.06547717453127       -1.75669898970893       -0.00725739691643
C           -0.94855511608398       -0.43039572738880       -0.00221010541199
C           -0.12534190453314       -1.53239810811083       -0.00362680774937
H            3.32182322747123       -1.54754577934094       -0.00168616995455
H            4.84482115131716        0.34109851107620        0.00149316584945
H            2.46107762833713        3.69630343365439        0.00770182482503
H            0.17339819046912        2.88441448253681        0.00608154145465
H           -2.16131638380149        2.69561419102272        0.00461022075675
H           -2.61539555239682       -2.65469484827482       -0.01073842290357
H           -4.07070596768477       -1.72155048831029       -0.00893406212936
H           -0.67312924673226       -2.47283190991936       -0.00575417541503
