27
 energy: -51.723881276711 gnorm: 0.000739420390 xtb: 6.6.1 (8d0f1dd)
N           -0.55539271309074       -4.59959653588229        1.02905287958607
C           -0.92834265482813       -3.57129809373538        0.67846361463986
C           -1.42609493512982       -2.33141764139153        0.27028336513762
C           -2.74499666260496       -2.06111027643131       -0.11130666928709
C           -2.86441429350770       -0.72604084997368       -0.46991031691210
C           -1.63763204345635       -0.06810144075055       -0.27735135677220
C           -1.55696278272964        1.32019032755969       -0.17891305276847
C           -2.80058282472194        1.95173296007721       -0.45803024820559
N           -3.78318273399583        2.48757238110267       -0.71641120780408
C           -0.54451821876190        2.24796467790991        0.22906531410115
N           -0.99426948696516        3.50869986654862        0.49039505073939
C            0.83648108876437        2.09932601416900        0.37213715087424
C            1.74646059887423        1.07697549003674        0.18766055676966
N            3.05339087118200        1.36454211467642        0.16155785583514
C            3.65523522633283        0.22340710246678       -0.22477808692819
N            4.96727179459701        0.14214138955071       -0.43619702552528
N            2.84390766664441       -0.83916837666723       -0.39076630849723
C            1.62563475820865       -0.38892711129370       -0.09967076232002
N            0.63436712160553       -1.21757718194488        0.05309079883698
C           -0.64942231649430       -1.15360810767767        0.07772027077802
H           -3.53922476382769       -2.78581974253966       -0.12488054665046
H           -3.77440498326448       -0.25804327679913       -0.79608749363458
H           -1.95325416299011        3.76297267700292        0.32761228462447
H           -0.33331336717106        4.23849198311558        0.68819622121870
H            1.34971744229982        3.03647504120371        0.56869329180775
H            5.35978315003160       -0.74625334545153       -0.69106495573747
H            5.55168674849897        0.93307330091812       -0.23541369530695
