29
 energy: -46.372883359626 gnorm: 0.000735076053 xtb: 6.6.1 (8d0f1dd)
N           -5.60642105482370        0.12633891708940        0.18809498359309
C           -4.46505844543042       -0.02038861515483        0.18145979955157
C           -3.07699621270820       -0.15436802686033        0.15095685081546
C           -2.33340881209167       -1.32829176802368        0.32228696385421
C           -0.96928125329785       -1.05469987534621        0.18184442993391
C           -0.05410028489790       -2.10459930778556        0.23140010377530
C            1.29168161463962       -2.26424439526166        0.00558892836537
C            2.39868065694938       -1.42250947346945       -0.21780705134442
N            3.51923114778006       -2.10100995813484       -0.57369287660758
C            2.56396278652417       -0.02299048155884       -0.05082114540403
C            3.84254128421814        0.54994344839001        0.08118070505020
C            3.73867142362609        1.93587781649058        0.16668429304738
C            2.40472655933094        2.26647862230257        0.05766309263749
C            1.62647647200116        1.08649362000781       -0.04443873329326
C            0.24428030870250        1.22673600092770       -0.12321779579636
C           -0.84371801953129        0.38520714388578       -0.05514063796406
C           -2.17475070410640        0.90340629137519       -0.09004062448135
N           -2.55643707251390        2.19432739543721       -0.26233911568962
H           -2.75801819168075       -2.29756412710436        0.51245406264498
H           -0.55489351815202       -3.04932814598368        0.42701995416261
H            1.58597880599082       -3.31097715754651       -0.01084765385816
H            4.36481202905635       -1.61144089698800       -0.80024341720441
H            3.50390396104220       -3.10214925208064       -0.65443288978962
H            4.77542803036978        0.02120798835900        0.17693263586791
H            4.55908350589873        2.61839935862544        0.29381151080093
H            1.99844361760866        3.26217565123217        0.07756627553590
H           -0.03507961966844        2.27557930575878       -0.19363419255558
H           -3.53798085483227        2.37475857362435       -0.39017028893538
H           -1.91245023570356        2.85921650819334       -0.65338023551414
