29
 energy: -55.971774451022 gnorm: 0.000248820373 xtb: 6.6.1 (8d0f1dd)
N           -2.94183885523139       -3.24202472853526        0.02835598649748
C           -2.17630426965132       -2.38881076677748        0.01662053989476
C           -1.14618532162751       -1.40431207241376        0.00605599001007
C            0.10628830881915       -2.00880926434345        0.00370946378216
C            1.42533115525474       -1.56450159251535       -0.00331779993201
C            2.03592927549729       -0.32655252237463       -0.00117091959673
C            3.44692144726147       -0.22258371486547       -0.00512428344700
C            4.35703624468327       -1.27853051316731       -0.01557510291286
N            5.14013779628210       -2.12164154580012       -0.02367274895639
C            3.82436209530279        1.14522310081395        0.00406570032519
N            5.08516240345433        1.59985501462325        0.00404186563143
C            2.65020403847198        1.91487091253824        0.01272341066397
C            1.53287646365141        1.08228709083484        0.00879035938519
N            0.34499486290333        1.63584566330069        0.01118671852627
C           -0.89005640856364        1.25388696496390        0.00513887431572
N           -1.79928128320876        2.25365583112916        0.00301782063531
C           -3.00737877345546        1.71967180897047       -0.00566526849195
N           -4.12765119433119        2.44369653333659       -0.01184886086624
C           -2.95300678623136        0.27631537193133       -0.00720370823899
C           -4.13077545885897       -0.46885058733486       -0.01899511754603
N           -5.18650754936617       -0.92606784846854       -0.03092591960275
C           -1.60204749191838       -0.07018045159248        0.00006547853917
H            0.03345971732372       -3.09271630828077        0.00707005913957
H            2.14175841659249       -2.38192529120096       -0.00893908240432
H            5.27017747053759        2.58691015748707        0.01124176182839
H            5.85589380745453        0.95380986974982       -0.00311316258787
H            2.59802233549456        2.98608004536967        0.02015600427098
H           -4.05875851222437        3.44604489364553       -0.01067295991184
H           -5.02572840301621        1.99137359507595       -0.01951160675071
