29
 energy: -55.966734628968 gnorm: 0.000970296893 xtb: 6.6.1 (8d0f1dd)
N           -4.85264521181181       -1.23157558306341        1.46532710748067
C           -4.07530172808979       -0.49014909713594        1.05675609666347
C           -3.12530185602188        0.40355519448509        0.56068542611975
C           -3.29182519660684        1.76051269209155        0.30954742084489
C           -2.10982177540691        2.28977360503049       -0.22263464737056
C           -1.13703763233570        1.29311885022948       -0.28681746863683
C            0.22785440817399        1.54344076663605       -0.46339432499652
C            0.54899258820412        2.88973218889350       -0.80094231674889
N            0.76878343492262        3.96951787825827       -1.11573663211621
C            1.36684676099314        0.78178105888631       -0.17791680334346
N            2.51289711610104        1.46594691502977       -0.08124301348456
C            3.47068057062595        0.61483326135012        0.33063194618929
N            4.71854054143170        1.04541301323113        0.54472807859867
C            2.96933450742628       -0.69445390937791        0.47344814596067
C            1.62247195945502       -0.65154815534917        0.12794911776112
C            0.86121276860724       -1.81222625329710       -0.09462393474675
C            1.58061971438569       -3.02319154851646       -0.00020545667341
N            2.14781751147858       -4.02125522183350        0.05829900327340
C           -0.50937217583384       -1.97355257784157       -0.42981994480371
N           -0.88963228082075       -3.12065049250543       -1.04564240271310
N           -1.51012705220988       -1.20742019807401       -0.06423730115678
C           -1.81133024237222        0.02718368189003        0.11724651113286
H           -4.19288177137628        2.31570503194298        0.49834099740436
H           -1.95824270753039        3.31875230153772       -0.49000255470827
H            4.91946422133608        2.01975059737448        0.40273810898702
H            5.42698724684674        0.42908520072339        0.89884862718764
H            3.53056899126778       -1.56160679890407        0.76021577530657
H           -0.23438099596955       -3.87594478776908       -1.16007177237152
H           -1.87468137466670       -3.32437007702203       -1.08751767423647
