28
 energy: -52.239197660777 gnorm: 0.000636191960 xtb: 6.6.1 (8d0f1dd)
N            4.11784053519525       -2.22201978398958       -0.19686809201059
C            3.11920939502467       -1.66760579932182       -0.10553408751152
C            1.79782131912563       -1.13273207792865       -0.02985360471828
C            0.87750330329472       -2.19961884281323       -0.02166439756458
C           -0.49449074607877       -2.31866946567449        0.00525011930860
C           -1.56769790137829       -1.42657433788777       -0.00370316273813
C           -2.88189679941616       -1.89349180019743        0.02170627164002
C           -3.78590927908077       -0.81768710039667        0.02036340234727
N           -5.12700515185833       -0.89256599792189        0.04476356541793
C           -3.02962350511713        0.37716706918434       -0.00853880819351
C           -3.57914815772157        1.65923694142528       -0.01816127798803
N           -4.08553086820603        2.69127803103784       -0.02763048102856
C           -1.64513478753222        0.05492443635209       -0.02681732787489
N           -0.78655803995283        1.03019099434146       -0.05860825532126
C            0.50871465895676        1.16899259465070       -0.04582964137227
C            1.01785565967485        2.48685338559890       -0.07523267961448
C            2.39356531289130        2.45608333206548       -0.01271630873991
C            2.81864634545151        1.11327917121512        0.03830154210604
C            4.17788922516975        0.79444480897414        0.14791346058471
N            5.31377008749927        0.66010174535421        0.25596709309552
C            1.68882316578018        0.25488959048061        0.00632555229174
H            1.38360379329527       -3.16069548846637       -0.03479115513912
H           -0.82768491027128       -3.35217387989112        0.03441144525110
H           -3.16759353865842       -2.93025371397434        0.03637386719713
H           -5.59084378378525       -1.78286522220993        0.05292649550112
H           -5.67789251516862       -0.05184235951824        0.03235316167494
H            0.39108905778706        3.35617616249247       -0.12308228121125
H            3.05740955117959        3.30112498081873        0.00136465231001
