28
 energy: -53.035401314667 gnorm: 0.000870385094 xtb: 6.6.1 (8d0f1dd)
N           -4.59518794445575        2.31526599155000        0.34293767652588
C           -3.59494579412393        1.77443898852910        0.20513496010122
C           -2.31273698484220        1.17096229765125        0.02483533119537
C           -1.34992114394040        2.14911865029566       -0.25097776610505
C            0.02884357004972        2.14908782075133       -0.32174938020189
C            1.03030786149330        1.20264840031716       -0.12745395414818
C            2.38067718886313        1.65669451939449       -0.01174747522719
C            2.78863154371900        2.99471431706737       -0.08599678292067
N            3.11719381184836        4.09290306777784       -0.14898054052505
C            3.22097592125215        0.57369749136258        0.22437355603857
C            2.44308749669475       -0.58932996358398        0.19568294438552
C            2.98755117694982       -1.84446095288591        0.50745746484508
N            3.50912961205076       -2.81115108425225        0.84036410008689
C            1.07786544897058       -0.24633400062382       -0.02812872747310
C            0.09896494974075       -1.23895608224648       -0.21397865088699
C            0.64272508948789       -2.50694337534295       -0.58647154219170
N            1.03682770942419       -3.49401479277576       -1.01427353772960
C           -1.29197713477037       -1.25823241048890       -0.11855610123122
C           -1.98185493060611       -2.49388508220425       -0.10699550802455
C           -3.32087319061854       -2.28068814866616        0.18320102190448
C           -3.52965229442984       -0.91327037417174        0.31832276410417
C           -2.31702715226501       -0.22278031021870        0.11537321261673
H           -1.78483567648504        3.13619037868673       -0.37282866288249
H            0.43971743727218        3.14155420365205       -0.48733716750506
H            4.27961433514898        0.61470515307449        0.40074542342176
H           -1.52352425375176       -3.45363365101424       -0.25480181819565
H           -4.07009508461739       -3.04313439906523        0.28363591321268
H           -4.47358232065944       -0.44370534087029        0.52490260461009
