30
 energy: -56.477140519087 gnorm: 0.000806905892 xtb: 6.6.1 (8d0f1dd)
N           -4.36021664975869        3.04902462031866       -0.82765749487709
C           -3.88411766673442        2.05239803691868       -0.50965498448211
C           -3.29989282984980        0.84139700378280       -0.13074939850425
C           -3.98539322019921       -0.26248729321892        0.41905760700900
C           -3.07140363690614       -1.25406950651825        0.67931517140609
C           -1.77384671754439       -0.83349726181996        0.26731824080135
C           -0.73416377218117       -1.75207127285770        0.16386339687237
C           -1.08097957427783       -3.05908130826040        0.60741843088253
N           -1.31775228151100       -4.11598230778044        0.98679025585426
C            0.58756328016057       -1.71262243934723       -0.37994328551597
N            1.03326270902058       -2.89510497320143       -0.88532614236041
C            1.51884922893254       -0.65201076913318       -0.33121706134560
C            2.83720996846745       -1.05937341393320       -0.68209250332795
N            3.85790254989741       -1.42152062472961       -1.06173562142163
C            1.43383872881240        0.71607287060379       -0.02331833656497
C            2.58867595142930        1.48097093954434        0.28578393262429
C            3.83259771325246        1.00884666184313        0.72230053477263
N            4.84851685431677        0.68972360668775        1.15268897290523
C            2.26855985758486        2.85001648909663        0.21697215815813
C            0.94600264871195        2.96964031277890       -0.15545905919206
C            0.35667806560986        1.68666273978955       -0.24260746761654
C           -1.00564716764542        1.56780995579563       -0.43862867193090
C           -1.91329764366677        0.55001221233913       -0.18902698393551
H           -5.04341643879014       -0.30293757426132        0.59939941594940
H           -3.29971467469580       -2.22064487667801        1.08732832343691
H            2.00816338452373       -3.01661533584674       -1.10665442100124
H            0.46470038030955       -3.72190411960696       -0.80911095750387
H            2.95458837762931        3.64989100730886        0.42450850015918
H            0.41076527701955        3.88996679139799       -0.29682318282971
H           -1.48499432614669        2.50979521242630       -0.69315416625864
