28
 energy: -57.032815287522 gnorm: 0.000667509378 xtb: 6.6.1 (8d0f1dd)
N           -5.00761621815774        0.88733556302862        1.48359670311614
C           -4.12099134094366        0.30883899856509        1.03911044812054
C           -3.07253370779228       -0.49557540629429        0.57683954335033
C           -3.12207620056438       -1.88200880924194        0.55761060944869
C           -1.89376273781863       -2.37739219720572        0.10601115099371
C           -1.01460500230825       -1.32502603817279       -0.14455172886258
C            0.35370688921980       -1.57345543256511       -0.36780263932666
C            0.71038246210734       -2.95043740915964       -0.45345416921326
N            0.98983528555939       -4.05465076009137       -0.57437169184440
C            1.47510643623277       -0.74951409275241       -0.29524941821403
N            2.67910240960124       -1.30178065466165       -0.08276972687205
C            3.52917261734731       -0.32049695264278        0.23174626828641
N            4.79145982403091       -0.56292216550210        0.57881598216031
C            2.91166586694756        0.97023810315996        0.12408137682929
C            3.55061511475130        2.18576036504149        0.35422924087367
N            4.12448580525370        3.15916198584781        0.56290562298253
C            1.59161490855935        0.72837017346275       -0.27818700220114
N            0.80428609272045        1.61801301655746       -0.82974877536827
C           -0.43950802848281        1.79556643526161       -1.03394408579316
C           -1.58225536893493        1.20960364825970       -0.37769849707068
C           -2.64013769995314        2.15618385427317       -0.31268320511345
N           -3.42146265812245        2.99321650027225       -0.34923697801611
C           -1.79423955794160       -0.07276518826689        0.06580418565777
H           -3.96664011290090       -2.47481865760193        0.85702122903890
H           -1.64627912329722       -3.41854082900566        0.01804551055079
H            5.11969241421920       -1.51340343461986        0.57607369187559
H            5.41205740722494        0.19020878320191        0.82036970068617
H           -0.66862913805720        2.61267722865126       -1.71483916047377
