30
 energy: -50.898179135195 gnorm: 0.000727697330 xtb: 6.6.1 (8d0f1dd)
N           -5.97667074468181        1.31535318001424       -0.54233736193231
C           -4.91981843982248        0.89181887895338       -0.38913826853487
C           -3.62987565527776        0.38446658553981       -0.19413160592421
C           -3.15042737345432       -0.85316455475014       -0.61836661592251
C           -1.79582784435186       -0.97509192744184       -0.25674472804190
C           -1.16308336440243       -2.20934721489684       -0.42722638418812
C            0.08324383604648       -2.72240399470182       -0.16926401152734
C            1.34268881650867       -2.15595526151857        0.08841011988800
N            2.33544970809572       -3.05175253629658        0.28984956511013
C            1.75491619053712       -0.79593424901069        0.04524065684068
C            3.07319540321365       -0.45437486764581       -0.29922744758328
C            3.24167857420960        0.92374813999752       -0.15093385730837
C            4.39717652754437        1.65088493146693       -0.45300669069477
N            5.35242720539482        2.24431750395461       -0.68980254742617
C            2.05063185553509        1.44927742200013        0.36693367736040
C            1.10215206112719        0.42325715452937        0.46017822559077
C           -0.20409510237450        0.72088223710853        0.94676243875130
N           -0.25859528847231        1.68623674005417        1.87865870476843
C           -1.43589940608918        0.25010786399762        0.43758731277214
C           -2.59030359991245        1.04364526598731        0.48028299430899
H           -3.72389323220049       -1.59863036019610       -1.13800412061364
H           -1.85390614217998       -2.95748699050754       -0.80648083940670
H            0.13437427350514       -3.80327923831714       -0.26716500793193
H            3.27931983090773       -2.73787498358315        0.42928900975688
H            2.16542908767061       -4.03717471356431        0.18511459185774
H            3.82141689156819       -1.11065606132995       -0.70663748245049
H            1.88197959977650        2.49611808460360        0.54671025721127
H           -1.14280815425729        2.05798830370461        2.17970968635778
H            0.58811672006031        2.13644304972024        2.18206866904972
H           -2.68118850712414        2.04102223952802        0.87331906976218
