27
 energy: -47.720948366854 gnorm: 0.000940882658 xtb: 6.6.1 (8d0f1dd)
N           -4.74868350612654        1.63296606934699        0.01346211736430
C           -3.99843901720977        0.76157462056789        0.00886986226130
C           -3.08664534854840       -0.29593847028683        0.00423612794643
C           -3.42283837749746       -1.66064339765173        0.00954002919930
C           -2.25714023234110       -2.39148322747987        0.00136077715882
C           -1.13135523603717       -1.52559685663039       -0.00750276156577
C            0.13043422043051       -2.08472337505494       -0.02023019730879
C            1.47122287145126       -1.66475941216395       -0.02376064617975
N            2.37272708269822       -2.69150742832177       -0.05765517711062
C            2.03018259983975       -0.36487843416934       -0.00567754432697
C            3.45652168999894       -0.33417835438490        0.01617962081819
N            4.60200123589131       -0.40325671309961        0.04010964748263
C            1.52679811678902        0.93754738076619       -0.00579208200661
N            2.47859494547654        1.89616670807461        0.00247593168836
C            1.86911822271156        3.07794328605081       -0.00685766994902
C            0.48394729414001        2.94838303862308       -0.01896571510180
C            0.19948985523408        1.57093524038084       -0.01688909336267
C           -1.10373469022803        1.09869283060541       -0.01469352191931
C           -1.67118664423067       -0.15883870794913       -0.00562648458418
H           -4.42477334458656       -2.04900793712012        0.01811893610620
H           -2.19430562880786       -3.46439363913058        0.00192296260206
H            0.06928105371959       -3.17158453305149       -0.02789981289914
H            2.06127052763267       -3.64348872619767       -0.01051703280027
H            3.35946646684965       -2.50482858545916       -0.01642914766494
H            2.44739381688546        3.98377234086787       -0.00455335771379
H           -0.23891065225707        3.74087686128972       -0.02694869897931
H           -1.84144669257761        1.89828820027831       -0.01728777705527
