28
 energy: -46.651191696049 gnorm: 0.000558902930 xtb: 6.6.1 (8d0f1dd)
N            5.61273311741722       -0.08396438422162        0.04086924577935
C            4.46721663692818       -0.18733189945264        0.05961874517747
C            3.07399509890600       -0.26884378219440        0.06640160828663
C            2.29137762126879       -1.41922697640503        0.21730991989659
C            0.93284417201950       -1.09415788865215        0.13743675275968
C           -0.01058554932011       -2.12009108495509        0.19141613891895
C           -1.37018980977371       -2.24746501407382        0.02997456550751
C           -2.46133718727425       -1.37259436619655       -0.12785624011050
N           -3.62125932038431       -1.99710113738610       -0.43917514210763
C           -2.55366912014786        0.03183543426636        0.05180092154942
C           -3.78366023198665        0.68847141046972        0.23768118091596
N           -3.66225693780094        2.01495458210897        0.35186940333871
C           -2.37069197535099        2.27532820287970        0.21523839847270
C           -1.58514613870614        1.10836446098363        0.05702438534128
C           -0.20259163577919        1.23579295568050       -0.05123647939121
C            0.85438301534478        0.35835368661944       -0.04095705126705
C            2.20562227257021        0.83055396670735       -0.10126093510784
N            2.62546946205857        2.10532085607742       -0.24988896908978
H            2.68628198374581       -2.40959846411976        0.35623478616315
H            0.47486494605469       -3.08189804130753        0.33596551613147
H           -1.69052430721749       -3.28610378579763        0.00798993901911
H           -4.46828609106485       -1.47419213285663       -0.56264474321332
H           -3.65903360770932       -2.99945258394927       -0.49920324272848
H           -4.76214855505937        0.25400303939731        0.35470387418703
H           -2.00726965353127        3.28715144063455        0.25778837114530
H            0.09167295628621        2.28160780662305       -0.10135961881280
H            3.60994396757294        2.27647299031094       -0.36127194458803
H            1.98591586843362        2.83068521000925       -0.52038388797371
