27
 energy: -46.919005758746 gnorm: 0.000586223308 xtb: 6.6.1 (8d0f1dd)
N            3.43341953453078        2.69056234539298        0.03028045443106
C            2.86214801506727        1.69185405641050        0.00865064860831
C            2.25527202398970        0.43827012882527       -0.00969932310412
C            2.96348457457479       -0.78239009085454       -0.01877059593293
N            4.30484553970370       -0.90326890674339       -0.05014140927234
C            2.02617874522308       -1.82564060236244       -0.02232151628772
C            0.72442654973580       -1.32145586371834       -0.01827442540541
C           -0.35341614050279       -2.19821721573070       -0.01566464559618
C           -1.74406829148625       -2.09593196212465       -0.01763673035541
N           -2.41108256240245       -3.29741465884144       -0.06044799501199
C           -2.59652969352808       -0.97480721330800       -0.02624536415024
C           -2.42891939312798        0.38580072281107       -0.01837098078434
N           -3.57146321342739        1.12373248366706       -0.01859386049944
C           -3.22224479445813        2.40259336061170        0.00005595014887
C           -1.83931018530321        2.59053677522046        0.01221462649325
C           -1.26286277279814        1.31577579367251       -0.00013327016067
N            0.04330882531396        1.17731060136206        0.00017989805067
C            0.85747335381989        0.17113018059671       -0.00968667615713
H            4.73552938644386       -1.80548248508773        0.04088130791158
H            4.87578054382693       -0.08003361537012        0.03239589868980
H            2.28156810254625       -2.87085110436850       -0.02935656261546
H           -0.02101347050805       -3.23502319780092       -0.01718265773049
H           -1.90782036752981       -4.14986695845992        0.10981706506083
H           -3.40255093685910       -3.31093312309805        0.09878606498132
H           -3.65224586150317       -1.23258843419506       -0.03823997968842
H           -3.98107990779101        3.16605127816164        0.00426849698792
H           -1.30302322645043        3.51779327033187        0.02751130858872
