26
 energy: -48.790858071441 gnorm: 0.000927114062 xtb: 6.6.1 (8d0f1dd)
N           -5.41369361442782       -0.37764415069688       -0.53686535147650
C           -4.36398138831848        0.07084010492040       -0.40899276876893
C           -3.08299273970576        0.60818504901832       -0.25149272827018
C           -2.74573039581404        1.95917368924713       -0.32641835802809
C           -1.38233668300493        2.08221193100012       -0.09446953333833
C           -0.80405629510633        0.81318920215911        0.10094103514777
C            0.58919713198710        0.67970493588188        0.25723118250324
C            1.23622317563676        1.93945641371082        0.43801857680804
N            1.69612856595167        2.96428001900278        0.66172227264217
C            1.44752840062378       -0.41320748940926        0.14860736891573
C            2.84536731469431       -0.29436970805202       -0.06896583597149
C            3.69085177654546        0.81144854569292        0.07904729622543
N            4.47991074497735        1.64125733996408        0.16882939389839
C            3.34950468087712       -1.53789817148449       -0.51108243168708
C            2.33588605008046       -2.46753013117548       -0.49740539737127
C            1.14494207832383       -1.85709171860822       -0.03148332440485
N            0.14864361330439       -2.60232903645952        0.34443473234676
C           -1.09255717125193       -2.48040411115220        0.68537913299079
C           -2.03602014007730       -1.48628907611579        0.38137860558658
C           -1.90923414685366       -0.15899140531171        0.03465906058302
H           -3.42886267960330        2.76332522990176       -0.52760429030865
H           -0.84367571785875        3.01091340321504       -0.09590271053411
H            4.37372148898417       -1.70857754928674       -0.78764903090336
H            2.41262363110285       -3.50639627399126       -0.75402663144190
H           -1.49253101885038       -3.38181946337834        1.14386821497844
H           -3.06262891851298       -1.83829906439469        0.41618705367987
