30
 energy: -55.692883888929 gnorm: 0.000838491369 xtb: 6.6.1 (8d0f1dd)
N            4.66323263837793        2.51600864682027        0.78894647393651
C            4.16369863340831        1.52759397683311        0.48044454161146
C            3.57634355331196        0.31526898424702        0.11256130505214
C            4.29246936236517       -0.82988317991689       -0.32899876816435
C            3.39569556704226       -1.81691399185056       -0.61765044180385
C            2.06607826383342       -1.36510955645009       -0.33098132812068
C            1.03625230585111       -2.26064948401769       -0.36912032231463
C           -0.33029372332178       -2.28599454360047        0.02084870583560
N           -0.81551405318616       -3.55330325172928        0.17143387304628
C           -1.25147017412658       -1.24177213717290        0.18104185770592
C           -2.53875565062916       -1.67244545665425        0.59526834104467
N           -3.53428799809741       -2.06186636584289        1.01584254646927
C           -1.18767618275997        0.16205689018745       -0.00671070007772
C           -2.34067256473989        0.94078763395756       -0.16194985500808
C           -3.66102209098930        0.58817310449522       -0.43360509184881
N           -4.76440751985178        0.42317158362045       -0.71368633224088
C           -1.91311980663919        2.31200212965593       -0.11094743799520
N           -2.70273246446433        3.38142219541657       -0.25383513652335
N           -0.60832518804258        2.39882645948644        0.10322271047428
C           -0.10108432203143        1.14318400157433        0.12827999604732
C            1.26899591022686        1.05555212088024        0.28275485757886
C            2.19534232015282        0.04218118452392        0.08812070503191
H            5.36233023381912       -0.88282850245731       -0.41630671202883
H            3.63226772693087       -2.80583325640480       -0.96469834219093
H            1.36593749572890       -3.24874348034256       -0.68382153369752
H           -0.19021231128450       -4.33800984899158        0.16640561410863
H           -1.76529936023585       -3.70222631863095        0.46658270739022
H           -2.29417207288011        4.29792826535400       -0.21262969987000
H           -3.68616008738943        3.26912062825351       -0.42645309660938
H            1.70998714442212        2.02783925515893        0.48174451305930
