30
 energy: -55.704651924243 gnorm: 0.000518762398 xtb: 6.6.1 (8d0f1dd)
N            2.43241838859598        4.17335667790018        0.00087949752022
C            1.81408013921733        3.20742874478384        0.00017059520608
C            0.99606420859476        2.04087094904245        0.00014275144243
C           -0.35828375607753        2.40330058788881       -0.00083355311146
C           -1.56208475933595        1.73280445273657       -0.00161059460945
C           -1.94590756188883        0.39320696161801       -0.00180077737452
C           -3.30642323098282        0.02440355530677       -0.00255156298853
C           -4.42590649234621        0.84947389686605       -0.00269634823048
N           -5.37536514331594        1.49983327760781       -0.00565167362652
C           -3.33876858035844       -1.40065094351962       -0.00261105517227
N           -4.43132709951835       -2.17334496322185       -0.00318461573146
N           -2.10566130939535       -1.91068141926400       -0.00170683826961
C           -1.22740408119079       -0.88856145139463       -0.00112381252709
C            0.11170888785098       -1.24917929252797       -0.00004282288634
C            1.32116553018576       -0.57817318811664        0.00072489024326
C            2.52176823231860       -1.32238882343907        0.00187732590607
C            2.64687612422262       -2.71083920272261        0.00283210856909
N            2.81213168966101       -3.84940684917723        0.00174501350825
C            3.63251064766290       -0.43475828400741        0.00236895333085
N            4.92281895299462       -0.80569019306615        0.00323022145801
C            3.12739165477897        0.86768196104509        0.00171854146901
C            1.72703569924452        0.84365606859491        0.00079331769988
H           -0.48205739782089        3.48311004068154       -0.00107964935730
H           -2.42111145788649        2.39863125613455       -0.00229826643388
H           -4.31854421915193       -3.17125522669900       -0.00338856672391
H           -5.34868316912797       -1.76476701814945       -0.00431053265923
H            0.21653608111599       -2.33107509266419        0.00021913710409
H            5.65083151193520       -0.11434808721538        0.00403656428131
H            5.16778515101646       -1.78045885793833        0.00404485140812
H            3.73161038220122        1.75547435731581        0.00198523615075
