34
 energy: -57.774297675282 gnorm: 0.000733416458 xtb: 6.6.1 (8d0f1dd)
N            5.96436002768724        0.96785207964840        0.66650239107429
C            4.91839390819436        0.52127732154211        0.49140017003544
C            3.62600626739052        0.04422670340079        0.27260187405912
C            3.12617101527949       -1.22665100512688        0.53572745204621
C            1.75862098617970       -1.27145196782494        0.21468633881573
C            1.11264398888726       -2.50820375739800        0.25894968004708
C           -0.14139081842053       -2.98123912349540       -0.03710862796154
C           -1.39533026391336       -2.38547643028386       -0.24283814223360
N           -2.38496723807166       -3.26075461445718       -0.55612023889851
C           -1.81345767229436       -1.04030578918725       -0.06515280980386
C           -3.14588798749574       -0.75241422015759        0.26975910236997
C           -3.33488648595695        0.62845624056301        0.27537122333286
C           -4.48724761110967        1.32548999953643        0.63316324263416
N           -5.41557997742839        1.93842432046919        0.92906705968202
C           -2.12497213761075        1.23312884940469       -0.13508839166996
N           -1.98556164254241        2.60611768206411       -0.28373802901913
C           -1.15363552941682        0.22510291533339       -0.31586955548341
C            0.16214488789811        0.56508277947391       -0.74384609295980
N            0.23526282240994        1.65857967715238       -1.54187772588519
C            1.39398429016358        0.04202024775133       -0.29613218386026
C            2.57041903893295        0.82788687809852       -0.25563751349064
N            2.74173114126788        2.15409860883785       -0.61723864903148
H            3.70052229771132       -2.04969092371244        0.91958680346612
H            1.79999156198368       -3.29919873128534        0.54562389408706
H           -0.19854284977445       -4.06611817246047       -0.05137598248670
H           -3.32810383600466       -2.93595662625538       -0.66687933087228
H           -2.21929402728249       -4.25171640541218       -0.51531016836878
H           -3.90219721510258       -1.45467868535602        0.57158555815962
H           -2.74825241608419        3.11880059275447        0.14008694867251
H           -1.08320239388382        2.98165165851093       -0.02710980165011
H           -0.61543570236358        2.00904337635014       -1.95077283981674
H            1.10881334748346        1.86525755227625       -1.99809473073565
H            1.98173539844402        2.77659772959734       -0.37867383436297
H            3.64055031454270        2.51814759894776       -0.32516809319186
