28
 energy: -52.242203841804 gnorm: 0.000653273297 xtb: 6.6.1 (8d0f1dd)
N            3.94303682635645       -3.10945329701876        0.00706056204904
C            3.08704595929872       -2.34849478510814        0.00476971729099
C            1.94946402144591       -1.48526389765164        0.00357023073508
C            0.74430866125418       -2.18857227118198        0.00369119421086
C           -0.58808077773467       -1.82386388064082        0.00227867028286
C           -1.30796267571508       -0.63282168094535        0.00016624857369
C           -2.72008915040045       -0.70501184747220       -0.00082490777055
C           -3.49494467500009       -1.86560908694978        0.00051108574665
N           -4.17580061501485       -2.79243302561953       -0.00025339382874
C           -3.27031619174677        0.60441108706156       -0.00295386408540
N           -4.57951703655932        0.90172670482572       -0.00473114485819
C           -2.19952504474575        1.50098557794943       -0.00310049917495
C           -0.98025563863856        0.80423249997760       -0.00122988003592
C            0.23264781010991        1.50807849057139       -0.00093185482796
C            0.05427442740615        2.92407305282011       -0.00295765642015
N           -0.08654594570939        4.06203035562759       -0.00267118288660
C            1.58481391483928        1.14883624467362        0.00029860809782
C            2.61456276513651        2.11112830893154       -0.00014891966583
C            3.81862496111679        1.41829545057519        0.00121479241684
N            3.63528048321275        0.09962555321709        0.00255167246268
C            2.31251850862467       -0.13670800086071        0.00214588447053
H            0.89420795318141       -3.26373289944578        0.00512378809239
H           -1.25295611677536       -2.68409437343322        0.00283191800575
H           -5.26564221326779        0.16736042995059       -0.00355719283050
H           -4.88309557939458        1.85872059568350       -0.00517077509815
H           -2.30315303119938        2.56963208449284       -0.00442553343437
H            2.49323311490950        3.17631972411941       -0.00137867328016
H            4.81233054900978        1.82672821035075        0.00128828956232
