30
 energy: -60.492353382934 gnorm: 0.000756065074 xtb: 6.6.1 (8d0f1dd)
N           -3.59574222503330        3.12918167175277        0.01775793828737
C           -2.72765026037208        2.38088100097709        0.01167038216283
C           -1.58142113747360        1.53369802798006        0.00226672744239
C           -0.41315069063980        2.29090430180761        0.00442045481252
C            0.95023891688089        2.01790701367928       -0.00002937045528
C            1.71841698199368        0.86789251066810       -0.00447432590157
C            3.13240479823648        0.95350886575525       -0.00524092024339
C            3.88843992720936        2.12732139792653       -0.00430477181347
N            4.54011908581023        3.07470403251668       -0.00351565879369
C            3.69511735765077       -0.34299163188943       -0.00646088001043
N            4.99658417712648       -0.64500664841352       -0.00705800967670
C            2.62363526234703       -1.27440890675234       -0.00678266961113
C            2.81268935579266       -2.65936356364712       -0.00732052111041
N            3.05841422942559       -3.78133425213766       -0.01083091028272
C            1.39325153434385       -0.58545727191635       -0.00660964669288
N            0.29096934038106       -1.28337480556463       -0.00944881398661
C           -0.98592634084537       -1.06947515226943       -0.01123402966464
N           -1.75301235263991       -2.17436148612926       -0.01824489204531
C           -3.02422687941258       -1.80425598842338       -0.01943518792196
N           -4.03292380531063       -2.67214749542887       -0.02660463005511
C           -3.15817288020073       -0.36589833520041       -0.01220007260907
C           -4.42214608010809        0.22343087009583       -0.01469335155999
N           -5.52513684772000        0.54920751129272       -0.01341924508373
C           -1.86411751315218        0.15372779306307       -0.00646201228815
H           -0.62217351879761        3.35686993315897        0.01067213968234
H            1.55708977555813        2.91957344958841        0.00188217708695
H            5.28977124425132       -1.60758978817708       -0.00787731791629
H            5.68893797995677        0.08503500160312       -0.00699459392618
H           -3.82475317678029       -3.65590249185575       -0.03135367114789
H           -4.98585662268040       -2.34950265705843       -0.02730578787421
