30
 energy: -56.485624624236 gnorm: 0.000559719975 xtb: 6.6.1 (8d0f1dd)
N            4.69857929891781        2.55023122996014       -0.36823092933947
C            3.73353024430189        1.95103351117525       -0.21871918920895
C            2.49115905443634        1.27409191749492       -0.03051611328489
C            1.47774450766872        2.19419986518341        0.27322415022622
C            0.10500566288442        2.12319050236989        0.36271989536620
C           -0.85430477873722        1.12899594729314        0.17304172247196
C           -2.21891067314837        1.51636220624339        0.08834527222522
C           -2.71582022450755        2.81777286787163        0.17804479451199
N           -3.15843143506269        3.87663946213983        0.24564800327903
C           -3.02332933061111        0.38172687873027       -0.14024024211087
N           -4.35038718014459        0.35807881059569       -0.32731410992198
C           -2.16191797385703       -0.74525264550320       -0.13388629333899
C           -2.66998762031242       -2.01413690545445       -0.42985470028242
N           -3.21619197235043       -2.97592646692206       -0.74311477176469
C           -0.82344342857293       -0.32208860924975        0.06404132641390
C            0.21573297877234       -1.26027543278093        0.22283319554507
C           -0.25849087844991       -2.55960421994339        0.57624045430363
N           -0.60740071815972       -3.57464869088971        0.97817940670602
C            1.60328022315214       -1.20863597013500        0.10106014656490
C            2.35676715833691       -2.40261008686674        0.06946781156003
C            3.67764189258458       -2.11424604285974       -0.24171865213121
C            3.81339094319898       -0.73722734568307       -0.37137583143713
C            2.57197532514934       -0.11427338257775       -0.14025785584023
H            1.86225058303970        3.20095211929659        0.40497226568392
H           -0.35498209846121        3.09118354874869        0.54275937063459
H           -4.87825840027823        1.21328727393699       -0.33628263314426
H           -4.81614569768321       -0.51547014099005       -0.50477426375261
H            1.95394594363165       -3.38696426083089        0.21575964962140
H            4.46434365072409       -2.83560285698422       -0.36060046064260
H            4.72741635313329       -0.21720240236971       -0.59006417551145
