30
 energy: -62.055494838332 gnorm: 0.000693607043 xtb: 6.6.1 (8d0f1dd)
N            5.37957687743507        0.53422192976803       -1.20432751295513
C            4.43196622726474        0.07309294967463       -0.75012654778077
C            3.31671705160763       -0.62156650911622       -0.26038525755873
C            3.34839700660622       -1.99996341618689       -0.01044047122978
C            2.08745280183102       -2.40310846656175        0.39319543966314
C            1.19627052230781       -1.30725341564068        0.34302090578152
C           -0.18203727079963       -1.53269009147544        0.42070993905655
C           -0.51488157503133       -2.82992894935275        0.91470627560655
N           -0.75588687580958       -3.81481232600286        1.44715005753840
C           -1.29315009816389       -0.77156266235858        0.02746989753110
C           -2.51477528317808       -1.39624344953619       -0.36400563885856
C           -2.75756661564232       -2.76395919622108       -0.56591009155014
N           -3.01319511700807       -3.85452267575817       -0.81328013854680
C           -3.44536995480656       -0.41403889459105       -0.70628934042787
C           -2.87182329368681        0.83678154093251       -0.45883205994368
C           -3.52887510959784        2.04389799757472       -0.74584828067000
N           -4.10772388462775        2.98441827381493       -1.05567407895841
C           -1.53047747274304        0.66100054465488       -0.02285166691205
C           -0.75343711815008        1.74659179120652        0.42345450707887
C           -1.49718433163309        2.89494487999896        0.83333646412673
N           -2.02394779417946        3.81058390933587        1.27433640360935
C            0.61130657383665        1.97306411863960        0.52413315826575
C            1.75071438113479        1.23146413189750        0.17311411513136
C            2.87801068695188        2.10669215946905        0.09764792142392
N            3.71167728682170        2.89091596248422        0.09414115164394
C            2.00348803305509       -0.12716117636757        0.00577912465673
H            4.21356389191134       -2.62623772581403       -0.12107370854920
H            1.80857749263979       -3.40991972052346        0.64205044264752
H           -4.43067051839440       -0.58885871631292       -1.09570937677264
H            0.85034195834890        2.98769212487195        0.83237347275221
