27
 energy: -42.931924840617 gnorm: 0.000883011018 xtb: 6.6.1 (8d0f1dd)
N           -5.76009021579959       -0.41146387985372       -0.08745948629759
C           -4.61949521426095       -0.27435739644899       -0.07366483496209
C           -3.23003479074285       -0.10469768098371       -0.05470295077773
C           -2.55350355345073        1.11372922064552        0.12563243015586
C           -1.17425668548753        0.88904605252818        0.07896342296950
C           -0.29149632119569        1.96871490430038        0.18239618103047
C            1.05974545075711        2.15975070242193        0.07389897620780
C            2.21267805963019        1.35300897781292       -0.07465816780339
N            3.33183876729539        2.08390513032235       -0.30287672071464
C            2.40935642409837       -0.04353943641318        0.04592809948673
C            3.69396271648116       -0.59105072541675        0.20817831359171
C            3.62439704215069       -1.98305631042207        0.23054534704819
C            2.30815166524661       -2.34631802341033        0.05445914583591
C            1.49848278689159       -1.18475125506251       -0.03162841369902
C            0.13152256560349       -1.35982645092111       -0.16190916785023
C           -0.98787228451363       -0.54374333442438       -0.12262130505750
C           -2.27531809721007       -1.11018782154478       -0.20628548661810
H           -3.02852466620708        2.06802488813890        0.26652814932244
H           -0.83188970114274        2.90027554527744        0.33144374635191
H            1.32941486857840        3.21286296434194        0.10386991378332
H            4.21422015614793        1.63854946460198       -0.46782465308649
H            3.28297814742393        3.08607852625068       -0.35448144516297
H            4.61069705839831       -0.04855486861352        0.36075921216447
H            4.45922640045393       -2.64673444346991        0.36184280624406
H            1.92805582130001       -3.35080387940632        0.01693479123782
H           -0.13520387164630       -2.40894869449683       -0.26876619469834
H           -2.48698447710074       -2.15373369495395       -0.35394862750265
