29
 energy: -55.967445301371 gnorm: 0.000518060747 xtb: 6.6.1 (8d0f1dd)
N           -4.91745054595381        0.93939553613217       -0.54903742395365
C           -3.99912465902644        0.28479106579612       -0.32918104788076
C           -3.00207596588290       -0.66287738633762       -0.07083546435898
C           -3.35201180303377       -2.01276953360149        0.19738578248312
C           -2.20874470255902       -2.73436818887178        0.38527370045459
C           -1.06676189086720       -1.89451727620070        0.20867442475731
C            0.16317164801215       -2.49557327239612        0.18721791021043
C            1.51607098878069       -2.15570784594982       -0.06615928273340
N            2.32676277372376       -3.23584908788092       -0.23793879018905
C            2.14254291661499       -0.90267772937921       -0.10946655867860
C            3.55472998637646       -0.93122784134767       -0.26879165630124
N            4.69047024169611       -1.01300188800163       -0.41415644920034
C            1.68725146672257        0.41952609249020        0.03298574645689
N            2.62526522655198        1.36367455793902        0.11539495680859
C            1.95620318751090        2.53363197887905        0.18101886371271
N            2.57324476858646        3.70600425712954        0.30413670314043
N            0.62365211275603        2.41709815812557        0.11416614098877
C            0.37696287204661        1.10101233544394        0.03136953615854
C           -0.96261339998368        0.70902673016998       -0.09157882639398
C           -1.79008789332114        1.86205997398293       -0.23340458139835
N           -2.40738002465653        2.81875151097295       -0.35940609460745
C           -1.60029017681489       -0.52959359665722       -0.03076672329518
H           -4.36230881768258       -2.37630225997763        0.23867767190478
H           -2.15418982725530       -3.78673456542947        0.59368417775707
H            0.07317955745615       -3.56712707048936        0.35670887776821
H            1.96164060413549       -4.16865782051151       -0.17079515310555
H            3.31591052994940       -3.11131631616598       -0.37151365649498
H            3.57660345454478        3.73407309758011        0.32118174866190
H            2.02401793807276        4.54636697175643        0.31998011912791
