32
 energy: -65.509963194558 gnorm: 0.000876005371 xtb: 6.6.1 (8d0f1dd)
N           -5.57877356916968       -0.29573347937834        1.34649836120034
C           -4.62483821931020        0.11808639534284        0.85964841239585
C           -3.49488318504119        0.75518949997780        0.33045690683431
C           -3.47148102149946        2.13306978087919        0.05868609762756
C           -2.20973591179387        2.47757085045445       -0.38567748950050
C           -1.36360949655946        1.34582451607498       -0.33977627749078
C            0.01689331824869        1.50494656424971       -0.45205334935759
C            0.40539886113991        2.78747406153286       -0.93969997575235
N            0.70021896626682        3.76798249196937       -1.45424262579785
C            1.10948203248848        0.69534532503057       -0.08120525108740
C            2.35331235683576        1.26908230157918        0.27239601128183
C            2.68677742470938        2.61271926631856        0.47484547756734
N            3.06717725114595        3.66589409365105        0.73136416406777
C            3.27742174743391        0.23627580965738        0.57490266656024
N            4.52994944061346        0.39646659165104        1.00956909593821
C            2.62177421964628       -0.99725014123427        0.33053130418908
C            3.25931082620511       -2.21930450019611        0.57474253124931
N            3.86932152894591       -3.14980486289824        0.85940231769874
C            1.28699677478393       -0.74884206473755       -0.05406302668961
C            0.44007307204043       -1.79365242449238       -0.48262836671305
C            1.12194113455753       -2.96917894989196       -0.91705263930971
N            1.60955252863888       -3.90333476848214       -1.36547653091689
C           -0.93370132644942       -1.95590815233231       -0.53086011075923
C           -2.02892040065857       -1.16629858294607       -0.14002596738468
C           -3.18883135388250       -1.99206449935750       -0.02679446408922
N           -4.05307969931810       -2.74222074912733        0.00864106128282
C           -2.21814933543670        0.20112825819113        0.03159241876150
H           -4.30639495769373        2.79656313966143        0.18536065985415
H           -1.89290508271947        3.46801286912329       -0.65290415415951
H            5.10256880345534       -0.40682824147758        1.20910844617305
H            4.90031721379583        1.32091366501383        1.15528517139088
H           -1.22973124941653       -2.95651329020234       -0.83649241466389
