27
 energy: -52.515574431047 gnorm: 0.000313840226 xtb: 6.6.1 (8d0f1dd)
N            5.10118663246112       -1.54045012585274        0.05785732655316
C            3.98889162610300       -1.26781220569264        0.04073210329387
C            2.58732527187317       -1.01036767018718        0.02340366406854
C            1.80895969019865       -2.16680733282263        0.03012010000811
C            0.45131732398111       -2.42229159668965        0.01646251818287
C           -0.73846737892553       -1.69226127532869        0.00501387571665
C           -1.94105700799011       -2.40560288658266       -0.00180907540313
C           -3.03033568616971       -1.52868956249935       -0.00185340726403
N           -4.33206874070553       -1.84057549124505       -0.00698170444935
C           -2.50890799755276       -0.20277438455848        0.00494980079899
C           -3.40754718988885        0.86966602635796        0.00370027491969
N           -4.30317490116443        1.59057101790936        0.00393347777579
C           -1.09829420591403       -0.25184647191008        0.00694524353339
C           -0.32770833344678        0.90853068610340        0.00525123083902
C           -1.03906171682296        2.14698721929509        0.01570920687895
N           -1.58628436225645        3.15285408610544        0.03097731294638
C            1.05302579623123        1.15722720105253       -0.00933556490528
N            1.43621328078976        2.44670463966895       -0.02893624813712
C            2.76533758558453        2.42714498009270       -0.03608238879919
N            3.31704560349422        1.22012741958028       -0.01799153407205
C            2.28732774747044        0.35347382608951       -0.00200532449944
H            2.41411179887777       -3.06822151810016        0.04605770637462
H            0.24192575056099       -3.48826414087430        0.01783132384678
H           -2.01904727004274       -3.47716384562344       -0.00513298180153
H           -5.02053764067724       -1.10609502337919       -0.00473380647484
H           -4.63251097352477       -2.79876025408180       -0.01230281919283
H            3.35074911615682        3.32645631337292       -0.05474802173816
