27
 energy: -53.311105172933 gnorm: 0.000704263200 xtb: 6.6.1 (8d0f1dd)
N           -3.19109647746204        3.97420143762433       -0.00375545712477
C           -2.43678074464668        3.11231861868968       -0.00127494713252
C           -1.45651210632394        2.07354926797496       -0.00171951253728
C           -0.16378172804757        2.60851856639659       -0.00201997175026
C            1.11307098860630        2.06876502658111       -0.00181625582639
C            1.63150599974464        0.78135589217899       -0.00108921299024
C            3.04145155274973        0.58056705603800       -0.00107831428940
C            3.99472704969790        1.60804712287059       -0.00151632465216
N            4.76404954207752        2.45995781372038       -0.00287270664446
C            3.33395467634753       -0.78691998975845       -0.00028074137264
C            2.13079489242068       -1.49019502484923        0.00033456502694
C            2.00795657623351       -2.88695254929803        0.00145554154869
N            1.94429128735322       -4.03183270348586        0.00167468729065
C            1.03853692586884       -0.56759098064562       -0.00014893471327
N           -0.17205264168330       -1.05121353310930        0.00037439497007
C           -1.37636641687853       -0.57091378270798        0.00013424576758
C           -2.46737111458204       -1.49772107764566        0.00093833829232
C           -2.33740990146541       -2.89233977448521        0.00211171103709
N           -2.26822646342371       -4.03732318378222        0.00313256687543
C           -3.67062539972142       -0.79056033956562        0.00039983982113
C           -3.38614597578208        0.57024411654401       -0.00065554527393
C           -1.99582618870109        0.78099198779679       -0.00089647917471
H           -0.16633002928183        3.69394304804892       -0.00259652764068
H            1.89126808639905        2.82750336783648       -0.00234296046706
H            4.31801814527650       -1.21876624077263       -0.00006565980869
H           -4.65078349250185       -1.23074798240525        0.00077696484824
H           -4.12511828587391        1.35128094141022       -0.00126537377966
