28
 energy: -46.654101659859 gnorm: 0.000964638327 xtb: 6.6.1 (8d0f1dd)
N            5.88143908374868       -0.65899317156252       -0.09634251455196
C            4.75648951558341       -0.42451820434603       -0.07496614035555
C            3.38716912787530       -0.14101929801837       -0.05055645821867
C            2.80868554165498        1.13221010876335        0.05520784069893
C            1.41194996500709        1.01263926824687        0.03747547922693
C            0.62318647939232        2.16846889777917        0.10544119599983
C           -0.70876620096169        2.47367609285141        0.04345711794039
C           -1.93133132203558        1.76345562004475       -0.05909387825512
N           -2.99600456030602        2.58788645899894       -0.21773131762460
C           -2.22342596855443        0.38492112332913        0.00907593849528
C           -3.53831602649923       -0.09857841539638        0.11088613098518
N           -3.63102385134944       -1.42839095328389        0.13494972910219
C           -2.38375196083715       -1.89184500202323        0.03082354205592
N           -2.16182392486713       -3.22299919891728        0.06074448768772
C           -1.40829613508281       -0.83169069435935       -0.02855471264107
C           -0.07126874690591       -1.13481572555301       -0.09383230650885
C            1.11503813126925       -0.40297032715438       -0.07501876422475
C            2.34911023318631       -1.07466441599685       -0.12777829194766
H            3.35576617607747        2.05495150516538        0.13134833552176
H            1.24523677088031        3.05547576465181        0.19726633519620
H           -0.88804248095826        3.54575940077215        0.06835261033068
H           -3.92608490751788        2.22428983848949       -0.30571248238089
H           -2.87201182708886        3.58412142003705       -0.19953341312478
H           -4.45476909328704        0.45767119738258        0.20704011217370
H           -1.28603740916403       -3.60321546328353       -0.25088908174563
H           -2.97784503580605       -3.80705575450182       -0.00280458990204
H            0.12641995552018       -2.20295091975548       -0.14413631654158
H            2.47746690042631       -2.13957127745965       -0.20967322889178
