24
 energy: -44.553918565852 gnorm: 0.000505029083 xtb: 6.6.1 (8d0f1dd)
N            3.35466930388655       -3.08947279167707        0.00613915477147
C            2.56636686860449       -2.25836573357370        0.00322258880031
C            1.54792513707545       -1.25669149534494        0.00262130384871
C            0.27707071524303       -1.83703729080742        0.00176022944155
C           -1.02153192680859       -1.35488105116811        0.00039451099219
C           -1.60713966985951       -0.09715266632015       -0.00006864826737
C           -3.02321571587740        0.04689511466871       -0.00139120878599
C           -3.96275773288916       -0.98644531081532       -0.00335068716972
N           -4.72539151138445       -1.84543910406045       -0.00188673844805
C           -3.28487137181076        1.42453444112261       -0.00112245431836
N           -2.16933203486933        2.13770610199233       -0.00006843955108
C           -1.12067778254184        1.29010110177866        0.00048165859774
C            0.13651574927156        1.87415305139226        0.00104939081197
C            1.43222244279008        1.39451799481414        0.00143756761701
N            2.40403668663658        2.32537428538502        0.00145077345590
C            3.57727752519748        1.69994733098459        0.00187226827826
C            3.43421086484501        0.31506322737726        0.00239103806646
C            2.05371282524921        0.04898427840125        0.00212979893479
H            0.32318006738569       -2.92237034243511        0.00218162995721
H           -1.76379645339034       -2.14969773899584       -0.00026172142840
H           -4.24845419460219        1.90071254640132       -0.00190680089354
H            0.09302205802565        2.95848338309300        0.00097427785626
H            4.49328952293514        2.26218784926684        0.00179869057639
H            4.22478844918742       -0.40992287457966        0.00288952525645
