28
 energy: -46.650462466810 gnorm: 0.000467604672 xtb: 6.6.1 (8d0f1dd)
N            5.55901028642182        0.98645534869857       -0.30662828700741
C            4.48436063307939        0.60176513350047       -0.17308894129981
C            3.17195877596607        0.14932542543256       -0.00454179602188
C            2.73515844294800       -1.16787487203837        0.00441926572499
C            1.32896385615781       -1.19518017274506        0.15358211803087
C            0.70096111834046       -2.44111461728635        0.20092813118874
C           -0.60164278994937       -2.89547729153053        0.16104954460551
C           -1.82155678957179       -2.25868901152406       -0.03108831336783
C           -2.23089886737127       -0.94198971619861       -0.13633185159594
C           -3.59261440216891       -0.66071081105584       -0.42558304150717
N           -3.86668671316830        0.62810348202459       -0.44052847761117
C           -2.72191902800608        1.26418384531328       -0.11726229623800
N           -2.72774204412426        2.64196747628487       -0.06621525376556
C           -1.64270221043867        0.37071374033069        0.09889489547786
C           -0.37176542643998        0.79729991289155        0.52219173484743
N           -0.32603753087568        2.00427645758087        1.12264291263431
C            0.89964573089461        0.18441585833473        0.29265349759365
C            2.04617784360404        0.97390541548803        0.20221137635256
H            3.36060709912121       -2.03471193877811       -0.10572067868746
H            1.42742263550691       -3.24888743090236        0.22366419228105
H           -0.68575519387930       -3.97543299799216        0.21138376265548
H           -2.64957715491495       -2.95081111625632       -0.15666177395189
H           -4.35683156236402       -1.38588145964174       -0.63906987312337
H           -1.91626664773802        3.09919337067379       -0.45999442558783
H           -3.59828813588318        3.00899292809823       -0.42915602426900
H           -1.18478265609291        2.45612457221589        1.39158460018901
H            0.54084310876478        2.33757140986509        1.50532964591044
H            2.09605105998133        2.04901714861640        0.20220465534236
