33
 energy: -64.435756496534 gnorm: 0.000733745321 xtb: 6.6.1 (8d0f1dd)
N           -4.98064847108847       -1.38845939102228        1.57018034386844
C           -3.96985173194541       -1.44507838510548        1.02673767386133
C           -2.73945593628567       -1.65602640871012        0.39718180604362
C           -2.34376802576342       -2.91019290569141       -0.07184995983778
C           -1.06619151175051       -2.81423553432407       -0.60966772282752
C           -0.58745474576597       -1.50381946284663       -0.45008294860308
C            0.78233915776790       -1.22867196401306       -0.52907424481579
C            1.55313991798300       -2.28283277697519       -1.09624722907544
N            2.14365022818795       -3.08337552942813       -1.66571122202081
C            1.54453213613564       -0.16880615276509       -0.02147820770422
C            2.88942982034298       -0.33718239645618        0.37557141969343
C            3.63397576240835       -1.51181208044958        0.49470066288694
N            4.32658973378255       -2.41098738329742        0.67972582105490
C            3.39660140016608        0.91559099122912        0.82198923723212
N            4.61805154761348        1.11398512670252        1.33424329352390
C            2.39194365615048        1.87565567897356        0.62403862483382
C            1.24528097865802        1.25864136086931        0.13274622749086
C            0.15447411270781        2.01848498514105       -0.35684259708481
C            0.52563522444579        3.35494067093089       -0.65700711836718
N            0.82295445471199        4.43278608371525       -0.91911758242475
C           -1.20777782367234        1.75184225594534       -0.52682784083204
N           -1.95667240777398        2.69508482466882       -1.15601521741640
C           -1.95824748173992        0.64855487090454        0.02275304668832
C           -3.23231909721827        1.09778287722855        0.46600016206217
N           -4.21161319306407        1.57864653206892        0.82158498650850
C           -1.70904171464624       -0.70695464274519        0.08429007719770
H           -2.93840011538493       -3.80268166644099       -0.00940361922304
H           -0.49551191462681       -3.63259817386026       -1.00592119683105
H            5.25680218683477        0.34178071191748        1.42242955698082
H            4.90302731200069        2.02852370184679        1.63620703213957
H            2.49601129985189        2.92462491189358        0.82811695455540
H           -1.54251468016517        3.58325908297414       -1.38990061225828
H           -2.96143720615938        2.63751806371332       -1.13609754259706
