29
 energy: -51.178957058722 gnorm: 0.000785675516 xtb: 6.6.1 (8d0f1dd)
N           -4.25875839908042       -2.45422156663321       -0.01513799968589
C           -3.23522748066394       -1.93780748672896       -0.01163420114675
C           -1.92544405619412       -1.37837151008957       -0.00575528035233
C           -0.92460780473423       -2.36417783203266        0.00641478294027
C            0.44857180919112       -2.36170872486643        0.01149687120003
C            1.46305034255208       -1.39401877376242        0.01064169811529
C            2.79543262067356       -1.80111077008735        0.01198862451850
C            3.65085760373815       -0.68595511084842        0.01136948946242
N            4.99969177609011       -0.70628913375469        0.04719033198867
C            2.84232021114042        0.46615883427949        0.01120793238160
C            3.32892466148908        1.77000530108261        0.00192031778010
N            3.76416780233010        2.83624743583715       -0.01225710745794
C            1.46737983100075        0.07874295737073        0.00969021958860
C            0.49579595345851        1.04849507618675        0.00663869178598
C           -0.90292414991651        1.05989610721635       -0.00267753525022
C           -1.61580263035827        2.25299827434650       -0.00610693957346
C           -2.98948547938770        1.91267433767653       -0.01803822981357
N           -4.03773393402784        2.75200705972729       -0.05684741553816
N           -3.16330231083169        0.58805557549057       -0.02098029351832
C           -1.94461032474814        0.01383269834774       -0.01168076811181
H           -1.35087496803484       -3.36372250074387        0.01016633825596
H            0.86866912784551       -3.36370319296067        0.01723175340542
H            3.12851450766706       -2.82323921101582        0.01314553885403
H            5.49023542142086       -1.57320737922189       -0.08003677689167
H            5.50946749223077        0.15353507505043       -0.05973803583662
H            0.90748850574989        2.05604162775652        0.00986836830736
H           -1.20804039125125        3.24528995920534       -0.00160734252655
H           -3.90896243121778        3.73796962498603        0.07968147378631
H           -4.95791425563122        2.35561760488572        0.02088627533286
