24
 energy: -39.760798003177 gnorm: 0.000703112541 xtb: 6.6.1 (8d0f1dd)
N            0.06407640363734       -4.40738237136864        0.00322257259566
C            0.04452680883086       -3.26078603750337        0.00119080172798
C            0.02224527501355       -1.83887898996131        0.00156873059026
C            1.30630663321454       -1.27933100312203        0.00256936046326
C            1.83809216323992       -0.00425760662973        0.00263800146471
C            3.24656185118245        0.14985007688404        0.00390135690187
C            3.57482414568260        1.49459383751240        0.00374612595730
C            2.39412999433147        2.22846653274007        0.00234220341636
C            1.28577224518022        1.35706794296549        0.00162183699522
C            0.00207692326892        1.87537828369788        0.00027623788869
C           -1.26564872829292        1.31905507542205       -0.00064703983209
C           -2.41764082072957        2.13358793191872       -0.00192773628396
N           -3.55290322559498        1.43475468404153       -0.00269466444288
C           -3.20684016234315        0.15324176286293       -0.00197204633297
C           -1.80337409875404       -0.04236031615667       -0.00065449472744
C           -1.27368652125118       -1.31718438568540        0.00021822636994
H            2.07973157067046       -2.04523951500626        0.00347345824413
H            3.94400826089882       -0.66834273248786        0.00485233688573
H            4.56898227253234        1.90182855149009        0.00457478222664
H            2.32193016282650        3.30125879952206        0.00187941324082
H           -0.01760639746788        2.96251906196953       -0.00012795468260
H           -2.43853721572547        3.20884632346558       -0.00229304086251
H           -3.95578624925527       -0.61844194210248       -0.00237924254788
H           -2.03938837219549       -2.09023754346862       -0.00030831315625
