24
 energy: -44.544317351955 gnorm: 0.000556161908 xtb: 6.6.1 (8d0f1dd)
N           -4.93961987579366        1.04934979391613        0.00617391669416
C           -3.95523583931748        0.45895510460602        0.00388784392975
C           -2.77053330814256       -0.28653853970997        0.00217351863649
C           -2.67723952218580       -1.67583524730103        0.00060206265223
C           -1.33158862801002       -2.03418796252950       -0.00104373663273
C           -0.52201833664609       -0.88921533837028       -0.00059127218015
C            0.87249932881090       -0.97428237589079       -0.00208490436066
C            1.39492640897688       -2.30457872169427       -0.00268668426648
N            1.76773864529400       -3.38732425953937       -0.00678940323793
C            1.89182666341245       -0.01994368694541       -0.00205984063619
N            3.14865661805179       -0.50769501318190       -0.00380017782198
C            3.98799235037836        0.52259519198569       -0.00352320478405
C            3.31440530542151        1.74172566492338       -0.00149055820638
C            1.93812416913226        1.45282641602456       -0.00042981102141
C            0.97829295235257        2.46000082971797        0.00171641316061
C           -0.41099457577602        2.47900576690814        0.00315084513187
N           -1.35934066866269        1.57184008677448        0.00301726666987
C           -1.45203881525998        0.27986895582503        0.00162569563565
H           -3.50982264984545       -2.35537188632208        0.00060628687933
H           -0.96378400735434       -3.04409018150962       -0.00253004942456
H            5.04939449526827        0.35498738290055       -0.00480090841740
H            3.75449293051381        2.72012723814394       -0.00082138483142
H            1.41577527718800        3.45365713915056        0.00246499872704
H           -0.84283956750668        3.47875322411782        0.00478870940433
