28
 energy: -52.238566915604 gnorm: 0.000879837457 xtb: 6.6.1 (8d0f1dd)
N            4.81450494019379       -2.14516268583584        0.74731021991363
C            4.19494609557799       -1.22402158527673        0.45176932742608
C            3.46133073969614       -0.08683443532901        0.09944167182366
C            4.03257758998082        1.14307026581460       -0.32152230529356
C            3.01881456431317        2.01616662226956       -0.59364741435422
C            1.75459671974501        1.39772671876605       -0.32045620160569
C            0.62159696404808        2.16312915369681       -0.35179776917275
C           -0.73914712065616        2.01775653542533        0.02613402766148
N           -1.37834671324189        3.21001002477353        0.19643143707503
C           -1.52549860970660        0.86080887178857        0.16121912834846
C           -2.85592035567241        1.12257615549015        0.58478755225906
N           -3.88677430625039        1.38328638895419        1.01831958598233
C           -1.28132497445517       -0.51471241584311       -0.05670897625944
C           -2.32547432986408       -1.44191798874999       -0.24444225597611
C           -3.67207431490847       -1.21673732322322       -0.54381350378163
N           -4.77251420768362       -1.10284819845472       -0.85270078733990
C           -1.72874676853725       -2.72757547119637       -0.21343886497422
N           -0.44224723520217       -2.66408565783311        0.02614645625580
C           -0.08458573199761       -1.35202610039683        0.08295966961925
C            1.26113673792258       -1.10932424498236        0.25345124185224
C            2.05672890263144        0.01542442659305        0.07801292904850
H            5.08734491245296        1.32854927794702       -0.40721287079221
H            3.13159846893717        3.03184690708471       -0.92528336107690
H            0.83249271810996        3.18892712046560       -0.64757684200709
H           -0.86322178172137        4.07161709466268        0.18044865211478
H           -2.34749800702473        3.23840277206612        0.46339434070662
H           -2.22996446432834       -3.66636019407068       -0.36199955503568
H            1.81400575954018       -2.02366678380654        0.44929953748190
