27
 energy: -47.728761448405 gnorm: 0.000740661625 xtb: 6.6.1 (8d0f1dd)
N           -2.61654239094535        3.56159944495962       -0.00581455514785
C           -1.95443648827630        2.62545853262875       -0.00703723982105
C           -1.07740809080812        1.50055218065278       -0.00672903497566
C            0.25736148911779        1.93554949491606        0.00121532050224
C            1.49159716738901        1.32278238577996        0.00631065930775
C            1.93345888785849        0.00201022582687        0.00382285919022
C            3.31682827223438       -0.30812298751427        0.01117180906053
C            4.37683135291731        0.59791222735016        0.02412672413945
N            5.24779241123453        1.34803107035762        0.03296359820074
C            3.41111481094511       -1.71258194486131        0.00425024518900
N            2.22490672478231       -2.28697369286839       -0.00628903270510
C            1.28194902276869       -1.30747128642045       -0.00663879521850
C           -0.02921688241359       -1.74290014904983       -0.01472888876081
C           -1.27847769334666       -1.13802789828918       -0.01453805354853
C           -2.42741461182301       -1.92856391356888       -0.01624544336514
C           -3.57420780446363       -1.11111630870827       -0.01270180562916
N           -4.85379387524673       -1.53642653560111       -0.04582487943518
C           -3.14462662068469        0.22128692411488       -0.01241371549016
C           -1.74443383983034        0.27098223208854       -0.01180046424172
H            0.32578995666038        3.01996148277302        0.00462420464268
H            2.31844620004232        2.02833806244061        0.01365352937649
H            4.31368537602381       -2.29691051935462        0.00720355892834
H           -0.07367047937576       -2.82795086789985       -0.02068471380841
H           -2.43430373644062       -3.00293778690066       -0.01888075823903
H           -5.59929927322563       -0.87345896561127        0.07243462744445
H           -5.05909066687806       -2.51175092954913        0.07909038690381
H           -3.79538096831570        1.07584911410834       -0.01158442789940
