26
 energy: -47.998850160556 gnorm: 0.000599634287 xtb: 6.6.1 (8d0f1dd)
N           -4.44314813180880       -2.08452004209107        0.02219426193926
C           -3.38385209466971       -1.64841379916720        0.01569530287180
C           -2.03555789207236       -1.18691052547177        0.00870035977336
C           -1.09997469813821       -2.21735803379198        0.00655106033560
C            0.28381656822106       -2.28005131251670        0.00365996730507
C            1.34729376563966       -1.38344454968565       -0.00098256857600
C            2.65171381500898       -1.88492249724835        0.00228744701149
C            3.57693409973986       -0.82882986382439       -0.00462217711695
N            4.91708455401427       -0.93904103477610       -0.02430309048874
C            2.84892273772768        0.37412270499466       -0.01493002763935
C            1.48102567166654        0.09972348557907       -0.01095221318931
C            0.54600279793461        1.13744408845759       -0.01320214459181
C            1.10634449435977        2.44988119132492       -0.02353180826400
N            1.58574644439765        3.49060420053030       -0.03213166805669
C           -0.85055418778028        1.18909568703081       -0.00394574610126
N           -1.42300197166735        2.41133156609201       -0.00359818544028
C           -2.73067839251244        2.18951575204316        0.00646925838873
N           -3.09542019500714        0.91064025439380        0.01221380292329
C           -1.94711190060737        0.21038876536014        0.00620042433666
H           -1.57026548604777       -3.19634143831795        0.00931183467902
H            0.64302895935134       -3.30547819453795        0.00621835896811
H            2.90858284076254       -2.92832564479102        0.00938299810215
H            5.48892251579496       -0.11582054822533        0.04020629822688
H            5.35385331131330       -1.83946176311763        0.05902051402582
H            3.28265988326210        1.35639162331482       -0.02297410584728
H           -3.44759782278295        2.98850021894183        0.00985017622446
