30
 energy: -55.696815960306 gnorm: 0.000828441690 xtb: 6.6.1 (8d0f1dd)
N            3.05368378455214       -4.05249787021022        0.64307919393632
C            2.94603056606149       -2.93726896016626        0.38165785609924
C            2.80533247794340       -1.58490914150199        0.07146819040287
C            3.81365712644943       -0.75514242968209       -0.45504297866500
C            3.28956573823854        0.50013792566318       -0.66406305485886
C            1.93667247837631        0.52954190969804       -0.24266252030671
C            1.26608350806382        1.73553626997183       -0.08222326884961
C            1.99027439759461        2.90152721293791       -0.42069430679282
N            2.53941448050956        3.87706853617943       -0.68011889753699
C           -0.05126424838430        2.02546203853365        0.42583289323987
N           -0.21330007505295        3.21179015162829        1.06484075500638
N           -1.15148630440626        1.36241182578681        0.22994609714130
C           -1.56123807961312        0.14535004762523        0.03114297530766
C           -2.90879932630794       -0.12634173713560       -0.30710969213328
C           -3.87354055181328        0.80813191722729       -0.67637509198165
N           -4.70024305778367        1.54665917063244       -0.98418279541239
C           -3.14258148202773       -1.51380808682098       -0.14436987978341
N           -4.31564087696321       -2.13337328508376       -0.35505958224234
C           -1.94142903263507       -2.11711564723967        0.27265702533277
C           -0.92618046678326       -1.16088239162154        0.32215158102305
C            0.41340765124290       -1.50706686749721        0.45569100335408
C            1.59476332201508       -0.84736028893218        0.17239860582901
H            4.82172720036413       -1.06702725642581       -0.65872766742190
H            3.82636848137174        1.35070888130683       -1.04049198469702
H            0.52031218779266        3.90031033858802        1.05428411477916
H           -1.15617266048800        3.51315641310122        1.24549963361561
H           -4.41166761059003       -3.11704586590822       -0.17903579708324
H           -5.11450770333843       -1.60557578523960       -0.66019571043815
H           -1.81574805263120       -3.16524806805096        0.47263161631017
H            0.55984470508561       -2.56138624816772        0.67840027643539
