27
 energy: -46.935817172843 gnorm: 0.000725429796 xtb: 6.6.1 (8d0f1dd)
N            1.81005217761800        4.22073009785535        0.00305197508581
C            1.31122312188958        3.18627996831266        0.00295538479821
C            0.72311683720469        1.89620960148592        0.00187778198282
C           -0.67136938234729        1.92489707353598        0.00155161486310
C           -1.66901076204376        0.96516215083644       -0.00112766785312
C           -3.02613932616316        1.36820610297370       -0.00527570485917
N           -3.88699134671207        0.36244936635483       -0.00760706945158
C           -3.14358100305234       -0.76233531203340       -0.00394129931849
N           -3.75495255590078       -1.95370943352741       -0.01299464294831
C           -1.73219793843282       -0.48924161294651       -0.00052629608500
C           -0.79510089010329       -1.49715147660644        0.00234412423194
C            0.59518926027796       -1.50965051900518        0.00314488621931
C            1.29266114398010       -2.73262577278321        0.00460013692112
N            2.61623364369470       -2.60441967169288        0.00202460791259
C            2.85785426768875       -1.28416405784322       -0.00113990302881
N            4.12092427721982       -0.84192852677605       -0.00384493330797
C            1.64239054176969       -0.50008694879440        0.00014354845598
C            1.68640755800667        0.87292215731821        0.00022350271306
H           -1.06916500572982        2.93723682706927        0.00241223667682
H           -3.38355869340225        2.38297573535233       -0.00616198846757
H           -3.24311779861093       -2.81530109571042        0.03379003065965
H           -4.75903836739307       -1.96648028217728        0.01134076915532
H           -1.21161890381096       -2.50137256068213        0.00249007563150
H            0.85259697923698       -3.71492893849923        0.00709511704273
H            4.34755837097537        0.13564278061563       -0.01521735184319
H            4.85759381738349       -1.52476394560770       -0.01081349106493
H            2.69560905835708        1.27954235067453       -0.00063409542174
