30
 energy: -55.676806927170 gnorm: 0.000420684646 xtb: 6.6.1 (8d0f1dd)
N           -0.07397655932150        4.56458667597026       -0.81255376566307
C           -0.48761335886680        3.54476765561242       -0.48196021028472
C           -1.14051120430885        2.34966055209537       -0.16119448587746
C           -2.55063355809348        2.29302793188851       -0.02669810867821
C           -2.91684172380924        0.99522829909989        0.20309719714994
C           -1.77031151392996        0.15022849577421        0.13322367385031
C           -1.95091775496829       -1.22795879901164        0.16176188531156
C           -3.26466079426715       -1.60019555302474        0.56537565477050
N           -4.29039461011959       -1.94984033169174        0.94552367172254
C           -1.16815444787948       -2.36563685796191       -0.22169388758934
N           -1.89649701664881       -3.49396115738937       -0.50984536849828
C            0.20256150626491       -2.51665183304669       -0.35821246965657
C            1.33316186656333       -1.73635071845327       -0.12968621367005
C            2.60955605667637       -2.29771101331093       -0.13861712997483
C            3.51753708143429       -1.26372748989863        0.16666795872091
N            4.84782004818613       -1.34876690584870        0.31745021570162
N            2.88349159780904       -0.09308525185524        0.32792595101097
C            1.56998018971901       -0.30586563829571        0.14645113840340
C            0.76466546616343        0.83343069046585        0.13408696205684
C            1.55082964785057        1.99796756034898        0.38805557464778
N            2.19109072294756        2.90612315433426        0.66644353110259
C           -0.60960832096150        1.05111674841316       -0.02943771473863
H           -3.20373691934693        3.14253204736308       -0.10175510767202
H           -3.92414432835525        0.64684585488811        0.33020295497051
H           -1.41972991667431       -4.37549567000043       -0.57956382279914
H           -2.88168998245459       -3.52282784230689       -0.31128665812864
H            0.47524464750790       -3.53193935023883       -0.63705559566309
H            2.85714031430227       -3.32624766388170       -0.31659788350452
H            5.34308820932618       -2.18354135887062        0.06297293941016
H            5.35495668725654       -0.49427818776680        0.46902747256869
