27
 energy: -46.933254262528 gnorm: 0.000237537485 xtb: 6.6.1 (8d0f1dd)
N           -0.08924239453405       -4.85653139332555       -0.00500744948090
C           -0.06814420196491       -3.70887935113162       -0.00381278421795
C           -0.04198794122131       -2.29001489004773       -0.00196411275717
C           -1.31685529797577       -1.71959424787790        0.07291671333278
C           -1.80824148164708       -0.42804998433232        0.06065627974006
C           -3.21139052292631       -0.21711063130904        0.10114297519641
N           -3.56239240194588        1.05444163618884        0.04538858381937
C           -2.40982911352082        1.75620506348292       -0.02960915900545
N           -2.46909618504010        3.10058086300244       -0.08124458314749
C           -1.25270891320910        0.91571609150236       -0.00815940316041
C            0.02670578357354        1.43994005786838        0.00266993525232
C            1.28593702457846        0.86893928471051        0.01210683525464
C            2.47321646118269        1.66620558887402        0.03546742640068
N            2.58192920596510        3.00735186077848        0.09038594066911
N            3.59916106381945        0.92267834704005       -0.04138392146591
C            3.20158867382261       -0.33494966457524       -0.10016678764411
C            1.79162135083850       -0.49419203919142       -0.06009396929407
C            1.25302834774584       -1.76672988834467       -0.07550053565597
H           -2.10640576342523       -2.46515529847648        0.13469182362291
H           -3.96325680256215       -0.98416347396930        0.15961633645883
H           -1.67661953259210        3.64047569986636       -0.38016735665441
H           -3.38572698162505        3.49832620844308       -0.19799975098051
H            0.04673703881696        2.52719706660928        0.00396996143559
H            3.51258790087969        3.37078992758688        0.20800091899241
H            1.80989887025530        3.57528984192703        0.39083534971921
H            3.92470966137083       -1.12901181496623       -0.16061617797525
H            2.01460350324127       -2.54069477453309       -0.13914664715473
