28
 energy: -52.247919448065 gnorm: 0.000840949256 xtb: 6.6.1 (8d0f1dd)
N           -3.91743659061901       -3.18877771153692        0.00135522377171
C           -3.07791108975416       -2.40892169065274        0.00152133378481
C           -1.97367606417173       -1.50206078516488        0.00301807831873
C           -0.76801885814688       -2.23505868684334       -0.00012211984313
C            0.56468217041500       -1.91442481347353       -0.00155285886022
C            1.29518235437564       -0.72073170144126       -0.00099870246292
C            2.70475322969735       -0.74257966360650       -0.00410458445100
C            3.54854892579512       -1.84878685368845       -0.00755940450752
N            4.27480745012299       -2.74095254244003       -0.01277459443229
C            3.13522803541059        0.61971605052276       -0.00280932861044
N            4.39680881781367        1.06217655148400       -0.00448740172458
N            2.09017421441223        1.44304698396207        0.00126531690409
C            0.96145573362359        0.70138769468254        0.00248882072084
C           -0.23005762476683        1.43663798804784        0.00709535294541
C            0.05304323640190        2.83747700796277        0.01224383578976
N            0.25599028808675        3.96508497436030        0.01069718231258
C           -1.59035601898673        1.11989611920807        0.00937042909434
C           -2.55725116948962        2.13398039174709        0.01427383082638
C           -3.83469215542546        1.57049812123030        0.01480232806771
C           -3.71170006216516        0.19452478598906        0.01037639133705
C           -2.34144698869160       -0.16275086424592        0.00707263500078
H           -0.94867537837545       -3.30613399674759       -0.00191201920125
H            1.21743865219437       -2.78328925773784       -0.00404609285184
H            4.55858460123848        2.05366388422203       -0.00470058012929
H            5.16857592633119        0.41972646539881       -0.00968043961740
H           -2.34261780970152        3.18591158733326        0.01704085331407
H           -4.75779783251997        2.11962592962090        0.01809620820255
H           -4.52446242930469       -0.50737596849285        0.00971616430102
