28
 energy: -52.247633145227 gnorm: 0.000665698312 xtb: 6.6.1 (8d0f1dd)
N           -3.38776763808842       -2.81460362809210       -0.30423770748224
C           -2.58620234661383       -2.00521355366132       -0.18213291890037
C           -1.49430782129469       -1.09402862368749       -0.06847437196127
C           -0.29115657917306       -1.79366004734887       -0.05084480750036
C            1.05909833473442       -1.46559336342667        0.01925342580256
C            1.80356195290377       -0.30099245566839        0.01519981693930
C            3.22201195286608       -0.37626452967817        0.06060966686339
C            3.98925550454226       -1.53906979428642        0.13766825882269
N            4.66052688179297       -2.47085627322660        0.19964812037707
C            3.76657104750497        0.92610207445629        0.00339567041036
N            5.07313268888140        1.23459173349422        0.03142538474313
C            2.68820469226850        1.82660131362412       -0.07297839078208
C            1.47879119032443        1.13259611736112       -0.06158880438873
C            0.27420028738696        1.83121119601022       -0.09169042784274
C           -1.06337727514809        1.50531528130591       -0.04096711781282
N           -1.90481939988200        2.57707501571821       -0.01719196546402
C           -3.13439790200153        2.12922412599493        0.05852490511630
C           -3.18718993171147        0.71353452960369        0.06541495307696
C           -4.39324587305746        0.01447015108197        0.17153112293176
N           -5.43920776546051       -0.44649596278828        0.28472119513597
C           -1.85128757303869        0.26540741277188       -0.00209752243874
H           -0.44981718613513       -2.86773128808286       -0.09007533133641
H            1.69229860725657       -2.34811049612479        0.06660537089321
H            5.37382107120651        2.18893930664895       -0.05156119991005
H            5.76297045051399        0.50393659369486        0.06063668445847
H            2.78470910795029        2.89537964136791       -0.12553889410495
H            0.40195673068491        2.90885345201234       -0.13341169338917
H           -3.97586158941311        2.79624299962530        0.10717404344279
