27
 energy: -47.727619468518 gnorm: 0.000937587784 xtb: 6.6.1 (8d0f1dd)
N           -4.79045324571577        1.62923435853899        0.00543668071772
C           -3.71015156714091        1.24807899498148        0.00462569332246
C           -2.33011821302494        0.88552290636920        0.00381004515515
C           -1.48841997511725        2.00769829752449        0.00368997511107
C           -0.12576014896801        2.19985882335233        0.00291013507444
C            1.01434828901388        1.38836700576568        0.00188131774890
C            2.27638013109839        1.98933754036739        0.00113101093590
C            3.28416810018509        1.01528315154893        0.00010485276460
N            4.61407189305529        1.22262508275014       -0.00006418939345
C            2.64681468165547       -0.24606616632655        0.00018149547521
C            3.32528605667133       -1.46337606554702       -0.00105328139868
N            3.92413644190218       -2.44619585111806       -0.00134020994412
C            1.23576484398922       -0.06564617152514        0.00130515069296
C            0.41352668309770       -1.17316240792748        0.00154382412386
C           -0.96187977847837       -1.37769514692782        0.00235456687531
C           -1.51244509049962       -2.66723757549753        0.00236580120876
C           -2.90008867575601       -2.51777427309230        0.00321703172050
N           -3.26487128432920       -1.24295918893845        0.00373164677049
C           -2.14035323886656       -0.49314798518889        0.00329963835944
H           -2.05323927270061        2.93562957031896        0.00433175183096
H            0.14605416132163        3.25182920571218        0.00309311243100
H            2.45308976696023        3.04952661999884        0.00133567687546
H            5.24556228904075        0.44135695189241       -0.00268696922818
H            4.98581179761572        2.15456302888116       -0.00229688231974
H            0.96957879305761       -2.10883802670112        0.00102567723754
H           -0.96469574152004       -3.58970358715974        0.00180491356845
H           -3.64397997194713       -3.29369640675212        0.00346755778408
