28
 energy: -53.048004581026 gnorm: 0.000397916547 xtb: 6.6.1 (8d0f1dd)
N            3.10490177032476        4.01194577753398       -0.00137477186598
C            2.38737112708497        3.11916238581777       -0.00194226881627
C            1.43737048148865        2.05186062895137       -0.00122696376957
C            0.13610111642827        2.56490371117451       -0.00133850513735
C           -1.13554913793196        2.01775393152058       -0.00109880225313
C           -1.66602343412737        0.73415028775351       -0.00061147359978
C           -3.08634057413532        0.57143059579201       -0.00029068582158
C           -4.01486584497284        1.62090458299718       -0.00010088139469
N           -4.76997602135816        2.48555897472212       -0.00178751766374
C           -3.40796518710106       -0.78362761682150        0.00007292537928
C           -2.21181457610904       -1.50597601780616        0.00000574974410
C           -2.12471507103696       -2.90500410392847       -0.00056917564542
N           -2.06295934404397       -4.05094284846702        0.00262861943667
C           -1.10439962180418       -0.60907823248445       -0.00021111471795
C            0.18607386064441       -1.12205805767468       -0.00029467613179
C            1.45830369246363       -0.58043016105419       -0.00060217773521
C            2.58178316894734       -1.45718209606837       -0.00060052768369
C            2.52043879036646       -2.85616050035716       -0.00059079154862
N            2.48232936397455       -4.00354457226805        0.00040215830783
C            3.76428932542674       -0.70574189368628       -0.00086756866340
C            3.42225912356527        0.63380056281818       -0.00110522823426
C            2.01601510526417        0.77684410034864       -0.00097060767419
H            0.12589839711857        3.65080704411620       -0.00169333924428
H           -1.91417924585881        2.77629052449602       -0.00131967650010
H           -4.39797122482041       -1.20070910081162        0.00024551185283
H            0.19767814609187       -2.21120759760849       -0.00001455465633
H            4.75863248795152       -1.11161397189609       -0.00093196149384
H            4.12047779535889        1.45025526449049       -0.00138653346957
