38
 energy: -63.845273886511 gnorm: 0.000530846885 xtb: 6.6.1 (8d0f1dd)
N           -0.15771392534565        4.51307618444874       -0.16235070605760
C           -0.13463036173254        3.35921852814160       -0.11703419562316
C           -0.10499540618407        1.95967379820245       -0.05669380952400
C           -1.23578099420395        1.32694297949018       -0.62914445467745
N           -1.99669361716665        2.10795852395487       -1.44589774841396
C           -1.81191744585906        0.10127009088144       -0.23658917959020
C           -3.21837223707379       -0.02327624438729       -0.08262879096442
N           -4.19290713014285        0.93720689549338       -0.34148023963584
C           -3.50374323779263       -1.27089614923136        0.46764376830762
C           -2.31760258067522       -1.97761607917554        0.59366713763951
N           -2.24321365547966       -3.28293215348319        1.10341411402411
C           -1.23189960331842       -1.16846076541433        0.15593456874782
C            0.04287364546819       -1.70598786776656       -0.13274584230481
N            0.08035112360085       -3.04886513718117       -0.33628122475474
C            1.28245471272876       -1.03705318913185       -0.23566347297923
C            2.49616899661268       -1.69183996917688       -0.55968949304046
N            2.67969017406429       -2.96256395651840       -1.09673320777310
N            3.57710824739700       -0.95618273373111       -0.27682404322013
C            3.13011962389667        0.18404273494367        0.25884959426915
N            4.04980948501837        1.14972257092078        0.63608783134958
C            1.71335491483517        0.24525871479169        0.29115641907592
C            1.04098141162238        1.44034867266789        0.60034621862373
N            1.69277951236675        2.30300405471671        1.42603501635242
H           -1.67175169608500        3.02083598383313       -1.71477486286000
H           -2.75827887086431        1.68825393191478       -1.94768303020602
H           -5.05995406646599        0.73275576430107        0.13779138427730
H           -3.89403755912558        1.89081581117852       -0.18036941161624
H           -4.48074162052466       -1.62122794346364        0.75056852821640
H           -3.11856711707224       -3.55970396327015        1.52990419621028
H           -1.47383970492801       -3.41717780907776        1.74857797304938
H            0.95907327544198       -3.53224169621291       -0.24068832070244
H           -0.77892440779494       -3.56537724230893       -0.24656364756107
H            3.66430984385679       -3.11095779048053       -1.28347808852461
H            2.11403658751474       -3.14114021304265       -1.91773340729092
H            3.79578370055305        2.09422761327260        0.37414399531671
H            4.97028623337577        0.89733315121168        0.29861090543382
H            2.46391369137298        1.96633445356675        1.97439792066538
H            1.28745817236439        3.19862575408556        1.63721290508173
