32
 energy: -53.528823375449 gnorm: 0.000889619421 xtb: 6.6.1 (8d0f1dd)
N            1.85421478096487        4.24531713085530        0.02539043972738
C            1.32700967010933        3.22203662262601       -0.00884412118432
C            0.67015420868333        1.97156022639211       -0.03800868611382
C           -0.67627639573991        2.09946896564279        0.26386493630482
C           -1.76874003445167        1.25079710415454        0.18815352406651
C           -3.08394886379653        1.75110993854987        0.30943130172844
N           -4.01908129305611        0.82822732143768        0.12383291056141
C           -3.35966471138301       -0.32590606369941       -0.09927416383916
N           -4.06251134408249       -1.47771088037933       -0.27530717869586
C           -1.94391520648629       -0.16364663062057       -0.06016105775101
C           -1.07842890842253       -1.24609586242788       -0.06693396800624
C            0.29036287183252       -1.39743024610859        0.02325368861102
C            0.83691698629134       -2.71528372860315        0.17947282708521
N            0.12658123619095       -3.87876128324015        0.30205801894196
C            2.22067078417152       -2.64556375227585        0.16230094399179
C            2.59444137230096       -1.31673511147361       -0.03206363511912
N            3.91394420761676       -0.91783950918380       -0.06216157979450
C            1.42937163915828       -0.49303406301734       -0.12368585558731
C            1.53055748240115        0.87832288004681       -0.39873735819239
N            2.70907711820389        1.28434473706776       -0.96404934511428
H           -0.95529397425466        3.11845094476506        0.52396898058869
H           -3.36157422214019        2.77349159657990        0.49671278057888
H           -3.63892991601335       -2.21933953003451       -0.80745388006516
H           -5.05116376788029       -1.34244640403320       -0.41301250757952
H           -1.60775527727732       -2.19423526531894       -0.10341501979506
H            0.65623591557482       -4.67823494104409        0.61007507862412
H           -0.80334894356713       -3.82214289002328        0.68422664989415
H            2.89819528301086       -3.46973994310495        0.29427392002798
H            4.10062930631109        0.01033185988328        0.29134295213388
H            4.54978142516582       -1.61598838425954        0.29672291528717
H            3.24876526376849        0.61025451443146       -1.47969766150609
H            2.81391716599399        2.25502246991770       -1.21096611880866
