31
 energy: -60.203182955617 gnorm: 0.000316866918 xtb: 6.6.1 (8d0f1dd)
N           -0.61751285297102        4.55804198236014        0.15784510648443
C            0.00937436641242        3.60301560873345        0.03383061356717
C            0.88312560427495        2.53377062522953       -0.18820559486179
C            2.13689774142342        2.73721174855538       -0.82713923367424
C            2.75854748937924        1.53065724222837       -0.98850246909687
C            1.95043530264243        0.50826697064875       -0.41166063018125
C            2.49649155027946       -0.71665780560417       -0.08921041686003
C            3.84451200359004       -0.94715249768755       -0.44095806768521
N            4.93898760516941       -1.18919060843554       -0.69274915873726
C            1.90245678710109       -1.84010791909998        0.61393797342960
N            2.70494812567734       -2.51636092890166        1.46593546750847
N            0.73917325794480       -2.34823054381559        0.38595760989964
C           -0.43559940208414       -1.95886618774048       -0.04871556018128
C           -1.39349565735465       -2.86907568738007       -0.49588787861588
C           -2.63673717612009       -2.23371768820994       -0.53896493217224
N           -3.81022538881965       -2.75981665046030       -0.91378846604871
C           -2.47145182513099       -0.88151379847844       -0.09318551202007
C           -3.55688633817195       -0.00615777386494       -0.06950004148026
N           -4.53361880226308        0.59940196667487       -0.12477484528576
C           -1.10283478599586       -0.64900859790078        0.13660682185801
C           -0.56030525263643        0.62145344688389        0.37496733387532
C           -1.49059268731226        1.53583830188831        0.94099166580433
N           -2.21406548231454        2.17922961257039        1.55496990240032
C            0.69012570194399        1.15356628033254        0.02289284921142
H            2.50584608024053        3.69864324473329       -1.13323332401207
H            3.72984029920928        1.36369470002953       -1.41427676301607
H            2.36964726527218       -3.38593184862696        1.84494219106915
H            3.68848084029579       -2.31116902262022        1.51474972686844
H           -1.20188645999864       -3.89926573360068       -0.72325963509370
H           -4.64459731350704       -2.19875265434920       -0.87251799580607
H           -3.86517379467638       -3.70349216179225       -1.25257436294701
