28
 energy: -46.647936236408 gnorm: 0.000856809733 xtb: 6.6.1 (8d0f1dd)
N            3.43144088621437       -2.67699275758046        0.37818015391609
C            2.89112656734492       -1.66636115909013        0.26051361520573
C            2.28551372492601       -0.42391983670395        0.10478667912710
C            3.00221254418006        0.78617796544766       -0.11612900847971
N            4.35444739076933        0.89066893211865       -0.13031160892372
C            2.07121004705832        1.80588493453006       -0.24275095003554
C            0.76293155538850        1.29286350360121       -0.09829047532015
C           -0.31422318412072        2.15764714344277       -0.05954942911209
C           -1.70667415245090        2.01447822326345        0.09386288279336
N           -2.39549581197601        3.19736432596619        0.27407720577081
N           -2.52988153136243        1.00169542711547       -0.05727084450106
C           -2.46301809214655       -0.29513170172773       -0.12953748711624
C           -3.64357023946604       -1.03482116770068       -0.36203459071035
C           -3.37239558274521       -2.38385252141014       -0.21760272391852
C           -2.02056860869951       -2.55080932030055        0.08755215996990
C           -1.38381364727800       -1.30324382413681        0.11518864041536
C           -0.01051538434563       -1.20052850395212        0.22115912303231
C            0.89567506843165       -0.15582086123723        0.10063016765625
H            4.89891513724038        0.04656250440678       -0.18197258524513
H            4.77235843456215        1.73538090131180       -0.47801646736439
H            2.30498537492609        2.84182463554410       -0.40767610593377
H           -0.01949048823798        3.19932379382717       -0.15179517950792
H           -1.92076906925443        3.99214630677545        0.66319023352464
H           -3.37475195282205        3.09888509893171        0.48289463480981
H           -4.59440822137525       -0.58894668763869       -0.58285058732867
H           -4.08758768203998       -3.18087188438379       -0.31963808875332
H           -1.52683792638834       -3.49133960847729        0.25388434894070
H            0.47893027406707       -2.16389519054283        0.35307003368844
