28
 energy: -56.252173525836 gnorm: 0.000743891853 xtb: 6.6.1 (8d0f1dd)
N           -2.94322401423701       -3.20399798725820       -0.46744504728683
C           -2.17396595292121       -2.36611227092990       -0.32555932098717
C           -1.14814841838532       -1.39202705152379       -0.15678100494379
C            0.08171836400246       -2.00820099021266        0.11782715293246
C            1.38333673746262       -1.59382868670796        0.33407199277510
C            2.03570452999448       -0.36914828604074        0.24948751670305
C            3.43016476717500       -0.23849112630293        0.21585986102784
C            4.40236995526583       -1.18394883371073        0.52325788535550
N            5.23019745008588       -1.94498775902584        0.76608860374126
C            3.69409630793100        1.08755296148812       -0.26836754200752
N            4.89701272814741        1.60464503262125       -0.51159761976921
N            2.57153342870365        1.77841025487321       -0.47087926283110
C            1.54291863993476        1.00065978017716       -0.10506361904902
N            0.37350359514346        1.52907812927788        0.02925806916147
C           -0.86630580645135        1.20949859261634        0.16436778443966
N           -1.74680331498260        2.16811051918668        0.48781610034243
C           -2.96726306406500        1.69213383923707        0.25779359173605
N           -4.06599614318727        2.41918691115317        0.44202813756544
C           -2.94039321911530        0.32265924527255       -0.19216361645961
C           -4.10765723771817       -0.35097241288454       -0.54454989747001
N           -5.13784829518292       -0.78021521973869       -0.82215365866856
C           -1.59802835125810       -0.06548322467063       -0.16459044585636
H           -0.02096527056720       -3.08908234912301        0.16086504872092
H            2.07253369626887       -2.41722564528887        0.50113821197712
H            4.95537332226711        2.54558926291602       -0.86103704183259
H            5.73258501404542        1.08339874586843       -0.30961043532508
H           -3.97252545104455        3.36593264128231        0.76765393729489
H           -4.97002066200984        2.04596997844477        0.20631260650911
