31
 energy: -59.416467163799 gnorm: 0.000846190516 xtb: 6.6.1 (8d0f1dd)
N            3.65094807569696       -2.85385004369095       -0.62532639243075
C            3.26227593188915       -1.79376929916528       -0.40608439737845
C            2.90708692661997       -0.47478876577390       -0.12841244250978
C            3.85796480374592        0.51907905690130        0.27472399666366
N            5.17452598612291        0.28554314996181        0.40561957072573
C            3.17775741229698        1.70937073842229        0.48402365342786
C            1.80943526491574        1.54541674764273        0.18622176526199
C            0.96964305683091        2.62434317212554        0.08089115060692
C           -0.39092534499600        2.73749287800583       -0.31803923325808
N           -0.76268013207303        3.93712024364314       -0.83866298601267
N           -1.39309583015777        1.91507321435493       -0.15139794700974
C           -1.58440849699462        0.63888993280990        0.00172579901205
C           -2.86340592238790        0.12581481311933        0.30747085138226
C           -3.98789362521967        0.87448778939871        0.64946447952099
N           -4.93230921713478        1.46482391156553        0.93891684163634
C           -2.85055092313522       -1.28187620667100        0.14719385219228
N           -3.89755646251615       -2.09838647617403        0.31464845742458
C           -1.54439516172609       -1.68233561415078       -0.22543434072613
C           -1.19091926659212       -3.01029028987486       -0.46312319148661
N           -0.98342723869674       -4.12623886407351       -0.64768521523224
C           -0.69811879067029       -0.54862155309872       -0.25091249907815
N            0.59147569436057       -0.69151145631538       -0.34142314796784
C            1.62273750648112        0.09025295278044       -0.14766329793610
H            5.79400820898378        1.00512619854195        0.73155750007605
H            5.53640329673257       -0.63635689015244        0.23295238151246
H            3.62853890429637        2.63712661034072        0.78584272568618
H            1.44753162427861        3.58347493580478        0.25367232827349
H           -1.74121902003113        4.09493335254704       -1.00648489970339
H           -0.12569315501446        4.71175674920860       -0.87220607701324
H           -3.79350636317593       -3.08628779613135        0.15629033169370
H           -4.78864306433002       -1.72895363550190        0.59876462454345
