29
 energy: -55.981212282038 gnorm: 0.000573595759 xtb: 6.6.1 (8d0f1dd)
N            3.30073142656439       -3.65574516123325        0.01124979698312
C            2.51528845339398       -2.82146765671276        0.01046802195106
C            1.49186928135615       -1.83138721907576        0.00519280260542
C            0.20736182829191       -2.35796933574568        0.00786213908510
C           -1.07427736447488       -1.82490754213180        0.00590929404777
C           -1.64577681334906       -0.56111347310578        0.00043714524219
C           -3.05650473548209       -0.45735650335697        0.00020156550087
C           -3.96994256106347       -1.51098473133412        0.00469642003985
N           -4.76086311471903       -2.34645068585719        0.01013457930687
C           -3.43581481939893        0.91033243811399       -0.00583551485769
N           -4.69487589402737        1.37006713557737       -0.00764261459405
C           -2.26028406252779        1.67215976128042       -0.00961102799986
C           -1.14327721734060        0.83389521958795       -0.00603369269795
C            0.14855561562977        1.37338959642128       -0.00873589695652
C            0.20077229292761        2.79766200724701       -0.01619600925677
N            0.21981960464531        3.94384332827206       -0.01961279064542
C            1.43823444246433        0.83172315319745       -0.00647675076341
N            2.46530740773027        1.69416899724325       -0.01049370928483
C            3.57126101963464        0.93604388303085       -0.00714835516213
N            4.79936684251061        1.44803668185439       -0.00959428858377
N            3.34326044942241       -0.39378878934122       -0.00115544084687
C            2.01720985388347       -0.52773232353675       -0.00053084130126
H            0.21072996484487       -3.44397802689034        0.01263107283993
H           -1.83748710411340       -2.59932599188987        0.00964027952237
H           -4.87466865132542        2.35812208399388       -0.01204896428725
H           -5.46837522948401        0.72779472390238       -0.00452934541795
H           -2.22702525417149        2.74523224827064       -0.01453808667959
H            5.58829682873508        0.82723254047252       -0.00672221090389
H            4.91481262464274        2.44523526484605       -0.01393907378535
