26
 energy: -47.999181148049 gnorm: 0.000728084828 xtb: 6.6.1 (8d0f1dd)
N           -5.21142666178959       -1.27817713052231       -0.00473422068864
C           -4.25260594460799       -0.64602643208340       -0.00184132293355
C           -3.10873589779139        0.15850602392451       -0.00066729623626
C           -3.10897720629724        1.57128285860665        0.00344944905383
C           -1.81001359482296        2.01402369199157        0.00243933540902
C           -0.91509574057010        0.90879167319060       -0.00164023717493
C            0.45408603732856        1.09996115084050        0.00336032236737
C            0.85149619056206        2.47024180458142        0.01181753221749
N            1.18757538420144        3.56637727958898        0.01829071473071
C            1.56993862575152        0.22513681370102        0.00433411575184
C            2.87514555273186        0.69091616032291        0.00747307610753
C            3.71809911201458       -0.45331774914550        0.01072971521041
N            5.05749746074198       -0.45736501490501        0.02159123727286
N            3.00780056127712       -1.58077398462795        0.01080044962571
C            1.69818694855889       -1.24857795659108        0.00596116950943
C            0.80870411335735       -2.30551121175450       -0.00196783119942
C           -0.58471622521519       -2.43084570430653       -0.01515388727785
N           -1.59661057034434       -1.61252250230299       -0.01324804925764
C           -1.77832869373583       -0.31604271948339       -0.00526935205041
H           -3.99216680907475        2.18376486618954        0.00641686962322
H           -1.50351834558078        3.04397512857751        0.00406082862607
H            3.20510406624469        1.71146201363430        0.00705007396370
H            5.54067479338876       -1.33756964926631       -0.00221504256987
H            5.57621238348556        0.40079273343365       -0.01497620597911
H            1.33350710228202       -3.25410154820862       -0.00086050454498
H           -0.92713759749604       -3.46508183208791       -0.02744239905559
