30
 energy: -56.484800013490 gnorm: 0.000708234956 xtb: 6.6.1 (8d0f1dd)
N            2.51927618856992       -4.40983063998786        0.51059482013821
C            1.93659314977267       -3.43886344203229        0.33426756242770
C            1.14487516086247       -2.26554992533772        0.15363547717796
C           -0.21094168753607       -2.58905233614564        0.12527283341429
C           -1.37943381614124       -1.86510189548179       -0.04096466104432
C           -1.71663324817881       -0.52047765816852       -0.04445623000356
C           -3.08569311462956       -0.15975966233409       -0.15768605292708
C           -4.15261098625200       -1.02979094901031       -0.38274794023621
N           -5.05532043856261       -1.71787471750291       -0.56801081605967
C           -3.22460590377624        1.23674763492609        0.02101798249908
N           -4.37384187343613        1.92927505355378       -0.02522835036931
C           -1.94061843119423        1.75562018749441        0.24410178407360
C           -0.98610304269693        0.73273419290940        0.17929252606240
C            0.38803860602943        1.04182601219503        0.24267863158924
C            0.60875684874949        2.38767039088481        0.66381779393174
N            0.72719386225119        3.42597384666193        1.13505590403571
C            1.56053206053033        0.33544734405994       -0.02417742561469
C            2.79141268401256        1.02105943102298       -0.25202090211449
C            2.99772946202099        2.38681324037159       -0.48375956972679
N            3.25622374824208        3.47260913164236       -0.75585039079698
C            3.82208604422173        0.08356163260805       -0.39544691409531
C            3.28938266181894       -1.18209814034369       -0.22438571754518
C            1.89726521191968       -1.09578222141446       -0.03412824358308
H           -0.38304246594556       -3.65798673667646        0.20781996082613
H           -2.25318390960468       -2.50139449541932       -0.15363069929071
H           -4.37631424485212        2.91799229969123        0.15030471549525
H           -5.24593768176010        1.45581697313558       -0.18454626797100
H           -1.72939699853571        2.79645236983778        0.40138134472239
H            4.84702134590720        0.32339534710550       -0.60853864092372
H            3.84535129149043       -2.10006661574367       -0.26540135259251
