31
 energy: -49.806473040191 gnorm: 0.000467457263 xtb: 6.6.1 (8d0f1dd)
N            5.44512738025285       -0.52993509430572       -0.34357067054594
C            4.36032421692885       -0.17356680927386       -0.19771909506622
C            3.02662386084892        0.19707022731117       -0.03429326385111
C            2.48838289565085        1.47764848334647       -0.00847629276338
C            1.08791155537456        1.40109696978721        0.10673094369808
C            0.37850504255376        2.60051005661707        0.18941131088211
C           -0.94978650027353        2.96533911047626        0.17441602235379
C           -2.13096938971154        2.25518362665099       -0.01256919778296
C           -2.47932818655283        0.92380413621776       -0.14090106151877
C           -3.83767122743329        0.61648353863471       -0.43834342046326
C           -4.01164553268594       -0.73951350028228       -0.48015627315370
C           -2.77977130343103       -1.34932264159260       -0.16655338041383
N           -2.62436549429959       -2.72569008702651       -0.13696308870897
C           -1.80041279333771       -0.35094447967875        0.05423458663575
C           -0.48430322931560       -0.68044566574873        0.45787015461246
N           -0.35807055279627       -1.89646765017005        1.06155778785624
C            0.74255926932632       -0.01108454071999        0.21096770559871
C            1.95877640507315       -0.72369169236034        0.12110541903458
N            2.16703278903209       -2.09388913200243        0.14479218805990
H            3.05382096424900        2.38835670500189       -0.08224380060288
H            1.05073737789414        3.45315125772502        0.23071459079458
H           -1.10425447520968        4.03657477477232        0.24732601216857
H           -2.99375408187601        2.90716150108173       -0.11938110153370
H           -4.59605813057235        1.35703054944416       -0.61512180855384
H           -4.91718299486037       -1.27202754202675       -0.70853912165588
H           -3.38648225485370       -3.21537961457041       -0.58550953076565
H           -1.71968095042195       -3.07008402085141       -0.42693689716843
H           -1.18981423604859       -2.31254835655081        1.44759911256182
H            0.51512233165022       -2.10050655865036        1.52116255586311
H            1.45021881128923       -2.65290912869807       -0.29647942670343
H            3.09908717005625       -2.35009903945696       -0.15539109386861
