30
 energy: -50.092009767678 gnorm: 0.000582749607 xtb: 6.6.1 (8d0f1dd)
N            4.64497638010163       -0.55499910272752       -0.08018282304000
C            3.50720040120836       -0.38632827583444       -0.07146164917368
C            2.10881180203100       -0.17397396093218       -0.06028615741066
C            1.77626936280205        1.14153450975381       -0.37072187929821
C            0.65065753910207        1.94168697175832       -0.27613670185110
C            0.79457243918168        3.32926154037741       -0.55913751274248
C           -0.36842360933899        3.98656133775870       -0.23889859932539
C           -1.27301944602827        3.04554876206795        0.26113645160330
C           -0.69710812486322        1.76706404865022        0.23522760421685
C           -1.44966846114261        0.60649377888088        0.54721832696755
N           -2.60163431402392        0.79162423680980        1.22148915198844
C           -1.22407585887773       -0.71936382331718        0.10797991944467
C           -2.29244691619695       -1.60943020616558       -0.17208924474653
N           -3.65606480190944       -1.34457981100802       -0.16331927751258
N           -1.86519863842265       -2.83088289005103       -0.51429288292026
C           -0.54375364773751       -2.81206731023299       -0.38823734588711
C           -0.04230470934012       -1.54114362924000       -0.04345804235577
C            1.33658110382956       -1.34197854696954        0.18343869076825
N            2.03268851265424       -2.43514755407290        0.56808546007118
H            2.64714898813116        1.70810551895092       -0.69504776281271
H            1.69234205137153        3.77636415692323       -0.94569449209734
H           -0.56186517806104        5.03790265896633       -0.34813704739120
H           -2.28056570192159        3.29223415791310        0.54914586518449
H           -3.18005968166030       -0.00284220666557        1.43976013016318
H           -2.86200787176307        1.70225809230648        1.55225740296724
H           -4.15811089403424       -2.11615457628260       -0.58507519336661
H           -3.91390092532175       -0.45834112566242       -0.57963204835995
H            0.01800481787422       -3.69217643958626       -0.64813964338543
H            3.04017437852508       -2.42133583535663        0.56556608142509
H            1.55837130862615       -3.31563247611220        0.66222883277357
