26
 energy: -48.800411629135 gnorm: 0.000268699022 xtb: 6.6.1 (8d0f1dd)
N            4.92173078949090       -2.28646941772552        0.00306254604616
C            4.16897142301538       -1.41903717045023        0.00082707332474
C            3.24996430118045       -0.36321651879074        0.00032530416450
C            3.58015195021632        0.99350284164176       -0.00152894068788
C            2.40284449038643        1.72616671065888       -0.00209954825069
C            1.29293167600069        0.85894862157213       -0.00060631103531
C           -0.00929483484443        1.36773808035653       -0.00095506104991
C           -0.09326691368691        2.79572694108065       -0.00334706707177
N           -0.12161076777960        3.94038278831317       -0.00379938326199
C           -1.28194303980432        0.79303795428808        0.00003296848069
N           -2.30947993589829        1.68044739701113       -0.00100843066033
C           -3.43998291869155        1.00813312439686        0.00002239282040
C           -3.21292758923058       -0.38423900940194        0.00186918805385
C           -4.18524370951814       -1.38662614784038        0.00320017054412
N           -4.97837797361315       -2.21736549709659        0.00471707110541
C           -1.80833027343040       -0.56933513315977        0.00195048502009
C           -1.25864380855451       -1.85325069834908        0.00364770592208
C            0.02290666125400       -2.35738093534299        0.00406771974948
C            1.29872982506056       -1.78861999004976        0.00294618940609
C            1.82761294161888       -0.51274256871838        0.00108365838727
H            4.57781577665139        1.39167688782752       -0.00248689537066
H            2.34124369250657        2.79828363998221       -0.00356725254214
H           -4.38908655952583        1.51124787448807       -0.00057224818298
H           -2.02782698341070       -2.62129438705147        0.00485417018154
H            0.05281381521399       -3.44091003659958        0.00558361119826
H            2.08107439489284       -2.54415314644059        0.00373547980906
