30
 energy: -50.104160721577 gnorm: 0.000342328114 xtb: 6.6.1 (8d0f1dd)
N           -5.86791578833484        0.08635517891308       -0.07058623530906
C           -4.72625476833617       -0.05227446248945       -0.11798688488090
C           -3.33751146686950       -0.17372374065230       -0.14595190151797
C           -2.58832740172799       -1.30732439677539       -0.45361080494246
C           -1.22257992791291       -1.01807996684221       -0.30437655721471
C           -0.25083451710118       -1.98810098288253       -0.54019850659852
N            0.96221437679036       -2.10699707952677       -0.10145355767757
C            1.92986651504503       -1.36470689001586        0.36415067799957
N            2.83989698663895       -2.05708163376587        1.11421810372142
C            2.25202169106736       -0.02381951572856        0.02605018832234
C            3.55966783271400        0.47895172625971       -0.05701610988619
N            4.73298525733772       -0.23901187181511        0.03039326416096
C            3.50108020696387        1.88193361059908       -0.23235403148222
C            2.18637179456778        2.26005697510052       -0.21729412881657
C            1.35076124773500        1.11158917515359       -0.08598921344717
C           -0.01703447022452        1.26156320096519        0.03396495148216
C           -1.10699689476462        0.39217304671544        0.05106305088126
C           -2.43494305514086        0.88202200283648        0.15234127645479
N           -2.83073397742371        2.15355773765039        0.42100754801304
H           -2.99432087241087       -2.26688803697110       -0.71792694318913
H           -0.59379911199469       -2.87592584707138       -1.07100923036601
H            2.55564824367502       -2.96694191455459        1.43947694322567
H            3.48225978832392       -1.53410236148305        1.68485093088258
H            4.66339488516968       -1.21648544348731       -0.21332087784241
H            5.53426568764317        0.22369557037226       -0.37288227246142
H            4.35795041990395        2.52190565094689       -0.34071086472783
H            1.81706721374033        3.26599741622827       -0.30526659040338
H           -0.30903499302887        2.30827524764569        0.07055585751890
H           -3.81121872425051        2.30861790621521        0.58566982645206
H           -2.18695280849529        2.79004939735968        0.85716631314893
