31
 energy: -60.216977608844 gnorm: 0.000185910357 xtb: 6.6.1 (8d0f1dd)
N            3.03730281628698       -3.44757796291819       -0.37682491453376
C            2.27253477704857       -2.60530278066573       -0.23806832744240
C            1.23476416902828       -1.63781704582639       -0.10315218372539
C           -0.00711931447787       -2.25776506154497       -0.07291748789486
C           -1.33156340400951       -1.84152720893598        0.02052946971427
C           -2.00354799818350       -0.63484975290653        0.02711870920123
C           -3.42291150981064       -0.63800192023560        0.08514367720999
C           -4.24706695090009       -1.75887282664573        0.17646562433985
N           -4.96284461254662       -2.65633667424924        0.25201285542745
C           -3.89964336533046        0.69068425396346        0.02376861614866
N           -5.18547986533737        1.06814855818756        0.04561794395218
C           -2.77869279381885        1.53761708700765       -0.06406028491919
C           -1.60720592210472        0.78562728996961       -0.05505385550383
C           -0.34959024536544        1.41386491942326       -0.08535796772266
C           -0.41698007402603        2.83909529216018       -0.14276675189497
N           -0.51716510137486        3.97948612300084       -0.20060082812113
C            0.97869893547606        0.99296203018386       -0.03461097284032
N            1.87681601702238        2.00260567355884        0.00233158341076
C            3.09331716244629        1.47942774805827        0.05935175249829
N            4.20097662168159        2.21957208226747        0.12479955446043
C            3.03665390534554        0.04294662412922        0.03948231884519
C            4.20519198305241       -0.71288125762613        0.11570406418466
N            5.25208845640484       -1.18103425853909        0.20362259114048
C            1.67930344266454       -0.30180022148739       -0.02286546726732
H            0.08053134822966       -3.33940904794578       -0.12344276056772
H           -2.01926189877194       -2.68162823490710        0.07486311704186
H           -5.43072761594039        2.04074370255140       -0.00548243381510
H           -5.91444736353176        0.37918049498073        0.11520484197229
H           -2.82976720203824        2.60849895199432       -0.12046827749880
H            4.11591167951232        3.22079029826679        0.13268265267677
H            5.10455828016855        1.78135487813098        0.17034753232172
