30
 energy: -56.498003406725 gnorm: 0.000280672354 xtb: 6.6.1 (8d0f1dd)
N           -3.79973492382653       -3.67121121508334        0.00071497525141
C           -2.98677902972073       -2.86378761727942        0.00039319906546
C           -1.92270448550237       -1.91215797330514        0.00019188902307
C           -0.68666338792730       -2.57011393325326        0.00002789696252
C            0.63810419531093       -2.17817914195109       -0.00009978921392
C            1.32181002205276       -0.96600616626261       -0.00015330289672
C            2.74308230177929       -0.97823600205105       -0.00025373052079
C            3.56006764221859       -2.11083603613073       -0.00024833625373
N            4.26342014277462       -3.02012655392986       -0.00039925976359
C            3.23622238440306        0.34356081395530       -0.00031787051394
N            4.52253166039751        0.72159343778358       -0.00042257327383
C            2.10943223020123        1.20179321851451       -0.00015860765814
C            2.21125611949266        2.59512423016115        0.00004083791248
N            2.35617970057540        3.73518245097503       -0.00051573198335
C            0.91756699730477        0.43474240408241       -0.00009730574821
C           -0.31013395746179        1.09083294957233        0.00007485556448
C           -1.63491597681473        0.70503294052465        0.00025885663997
C           -2.64759525079720        1.70821854758020        0.00041528389106
C           -2.42122349183395        3.08863420774262        0.00052048832881
N           -2.24532346661584        4.22375524682780        0.00099636377798
C           -3.90861043787797        1.09916967062766        0.00055299818644
C           -3.72849107608246       -0.27234362605916        0.00051005356163
C           -2.35157087001288       -0.58036811576017        0.00027719337362
H           -0.80312252853748       -3.65001250274171        0.00007973743943
H            1.32254041619923       -3.02253074630325       -0.00017929217509
H            4.76271235170652        1.69776381941219       -0.00049787602061
H            5.25391270854521        0.03210400585946       -0.00051960480649
H           -0.19378645633311        2.17383458385645        0.00001623384462
H           -4.84873635623455        1.61894146685039        0.00068823089744
H           -4.51846030908287       -1.00023264021500        0.00058022140797
