33
 energy: -64.435886653988 gnorm: 0.000747754554 xtb: 6.6.1 (8d0f1dd)
N           -4.95979266514604        0.68037565383947       -1.90717069015297
C           -4.16182938175687        0.12858258098514       -1.29161773519251
C           -3.22396488884741       -0.66236712224577       -0.62018876424391
C           -3.42997268753692       -2.02712151838664       -0.36864125190056
C           -2.30068474927266       -2.55041906247625        0.23457764683295
C           -1.30467405663633       -1.55494088856102        0.30988292563760
C            0.02620618501496       -1.89687077365416        0.54062946922904
C            0.22066793672770       -3.23063866513355        0.99791821891821
N            0.39769300061230       -4.28151559902574        1.42058105863056
C            1.22576492090768       -1.24821700114440        0.19535865193080
C            2.39026735207558       -1.97688379774389       -0.06378823558471
C            3.39061325927134       -1.11235273291970       -0.52998657824171
N            4.61662080199954       -1.44729136762058       -0.95451519774788
C            2.87469788514281        0.21317507280395       -0.47465097103018
C            3.61287069962374        1.31132703744160       -0.92196537253334
N            4.28183069101415        2.13259980193494       -1.36868627050591
C            1.54776679688392        0.17101679344557       -0.00060662992042
C            0.89671305573717        1.31850905478858        0.48251307195578
C            1.79139960636856        2.38028173110304        0.78758604574168
N            2.47819486829606        3.24019443611985        1.11329841305892
C           -0.45182631627066        1.63998667705232        0.74463606410262
N           -0.68437130362909        2.75391610346990        1.48458596683031
C           -1.60994144868764        1.02100065401728        0.17164807976853
C           -2.65265182875934        1.97078455421505       -0.01537183109413
N           -3.43923917287994        2.80083369480666       -0.10858762057729
C           -1.93664707591348       -0.29454236387543       -0.12749037225201
H           -4.32473126583280       -2.56614556383424       -0.61945768967070
H           -2.16117060538731       -3.57728576511840        0.51532866954995
H            2.48546846127925       -3.04339637281663        0.01518567722953
H            4.91465234826984       -2.40641364718522       -0.95109705670385
H            5.24419265387370       -0.73573069291126       -1.28891972427058
H            0.08442593112950        3.35060413808493        1.74527207698172
H           -1.61433114267041        3.13573538274365        1.54171409312348
