31
 energy: -60.210810661834 gnorm: 0.000786672297 xtb: 6.6.1 (8d0f1dd)
N            4.04457765669302       -2.74529987228722       -0.41441201902051
C            3.04793029865660       -2.19856644392976       -0.26650437544966
C            1.75106002269047       -1.62527459638998       -0.13268102398851
C            0.77381142797947       -2.61680323051103       -0.14853823638411
C           -0.60677744742218       -2.64957344814623       -0.04406311614665
C           -1.64650697393373       -1.73036812006602        0.01195331031482
C           -2.96017698239701       -2.21090803758183        0.12171992125637
C           -3.86129753662483       -1.15038126673231        0.10516362194202
N           -5.19769529513156       -1.20074665546990        0.19509464718451
C           -3.10384189824357        0.05717729523423       -0.02955458259513
C           -3.79229528426493        1.27365670551632       -0.04453472010783
N           -4.54154723952238        2.14605491213528       -0.01899127471447
C           -1.73366388520879       -0.25504851587206       -0.07884709766240
C           -0.75458238059123        0.73867109182571       -0.17861290665839
C           -1.24382673416270        2.06796006739756       -0.36567945826399
N           -1.61996960149675        3.13059279154740       -0.57053050916104
C            0.64417548929156        0.76952950168769       -0.08719059469350
N            1.16231677119753        2.01184848586107       -0.05275361604203
C            2.48265525536796        1.91723268602973        0.07802433877742
N            3.27365918163140        2.98684354321109        0.17226352199597
C            2.89710365786066        0.54679170179134        0.09858030781934
C            4.23752498530159        0.20256366363089        0.26157704622985
N            5.36847346121795        0.08026280716949        0.43047607581518
C            1.72792630124529       -0.22479102941508       -0.01637159089773
H            1.20924705005092       -3.60842564615232       -0.23344992225104
H           -0.98521708776336       -3.66699969418261       -0.00935448973829
H           -3.22860499782217       -3.24770023372468        0.20291415046390
H           -5.73068640820512       -0.34738099618322        0.17083067983641
H           -5.67393029288354       -2.07872255572157        0.29716965421820
H            2.85673292174557        3.90073881480115        0.14031483030158
H            4.26735082194189        2.87919637842685        0.27891940041966
