30
 energy: -56.478906879116 gnorm: 0.000703108612 xtb: 6.6.1 (8d0f1dd)
N            4.64330021649321        2.73653182994911        0.09712962331140
C            3.60992000233742        2.24561726894175        0.02972581197658
C            2.28880309346800        1.71046775897980       -0.03148882336473
C            1.34621819320226        2.74755613084168       -0.07261707054632
C           -0.01951814202220        2.80627495036499       -0.23590793419687
C           -1.06906244550868        1.88668093713620       -0.28129499696573
C           -2.36772438539655        2.35539281701584       -0.51980506274248
C           -3.28510111926008        1.30541576492372       -0.42287757444310
N           -4.61425599083671        1.35730725512082       -0.60536832148844
C           -2.55414449898444        0.13615436129664       -0.07308939918333
C           -3.21231899938610       -1.09448327703235        0.01235304257396
N           -3.89226266241330       -2.02147129486347        0.00232686842577
C           -1.17536821377640        0.44960744313512       -0.00076599418365
C           -0.22908455297509       -0.54292933245079        0.28466879063214
C           -0.78808796628114       -1.67443957393868        0.94888280402580
N           -1.19632752680270       -2.46792630758298        1.66895294507210
C            1.15207417693953       -0.65857325957338        0.06893314058757
C            1.76749010157895       -1.93493256634770        0.01331944544048
C            1.16002453857508       -3.19702832070634       -0.01679935066080
N            0.75730132161636       -4.26764795639578       -0.12005807110391
C            3.15192798895902       -1.77548628800942       -0.19723673661524
C            3.43539126260253       -0.42924842087101       -0.22471730406531
C            2.23923143452968        0.31649579636702       -0.08967322847810
H            1.81533878231882        3.72622180670726       -0.03350465744325
H           -0.38059717563532        3.82224996365636       -0.36416422668709
H           -2.62067526787011        3.37600328809671       -0.74046876511397
H           -5.05705900509713        2.20499277916917       -0.91053481230860
H           -5.16101312337155        0.51634595880270       -0.53036574251018
H            3.84886398725825       -2.58358049540668       -0.31812965883932
H            4.41045939623364        0.00227312138110       -0.35287773942781
