28
 energy: -52.255561793815 gnorm: 0.000538054457 xtb: 6.6.1 (8d0f1dd)
N            2.95657076787192       -3.95228927513929       -0.00177328620897
C            2.29240204319994       -3.01853833862123       -0.00011316120055
C            1.40202724397925       -1.90187410745853       -0.00101641709075
C            0.06961650711759       -2.35697014275495       -0.00038336851870
C           -1.16959971738953       -1.76215404765233        0.00003689781217
C           -1.63675410968520       -0.44550279225028        0.00003670971157
C           -3.01862758234792       -0.16753924794084        0.00068084507948
C           -4.07998319191820       -1.06793189259853        0.00158382902872
N           -4.97996699502341       -1.78404828273829        0.00230472510742
C           -3.14630741065891        1.25349344661341        0.00042790224178
N           -4.28535457266744        1.95396626817727        0.00081708297022
N           -1.94763721293050        1.83950254399503       -0.00031030044642
C           -1.00456588576535        0.87635292932398       -0.00054679520557
C            0.31022311884320        1.32545852693472       -0.00124438067104
C            1.55544991081744        0.72846746115614       -0.00159915848610
C            2.71820217257840        1.54130743099795       -0.00215694841006
C            2.72979927192543        2.93950082483328       -0.00225119250843
N            2.74984773241496        4.08822424193792       -0.00345467328473
C            3.86330811704995        0.72436289489682       -0.00230373942602
C            3.45859078754274       -0.59250981663552       -0.00180956901872
C            2.04400752856922       -0.66558743675139       -0.00144866960524
H            0.01697722933527       -3.44199805356732       -0.00013178755076
H           -1.98695699382472       -2.47859595646954        0.00051225371522
H           -5.17560813656894        1.48909661596166        0.00156479737447
H           -4.23592371600948        2.95722793278758        0.00074809340623
H            0.34465571895770        2.41183320588700       -0.00156768235195
H            4.87668629037074        1.08144821252903       -0.00264207723900
H            4.11350939081589       -1.44380199515376       -0.00172480602428
