31
 energy: -55.399226393198 gnorm: 0.000832085717 xtb: 6.6.1 (8d0f1dd)
N            4.89002629321062       -0.27151925131494        0.91463403108488
C            3.84821187211020       -0.62383325608099        0.57972787439553
C            2.58144536719925       -1.12704203389413        0.26890207997482
C            2.25581593109257       -2.50204071824283        0.35857313920205
C            0.92080390561425       -2.65023700066613        0.08664606621325
C            0.32527518108819       -1.37186376252809       -0.09517849522007
C           -1.04803071232155       -1.25963323031145       -0.28991131165244
C           -1.67690415624108       -2.49764243094688       -0.61085131111951
N           -2.19056461750771       -3.47666264762540       -0.91543280222969
C           -1.96787427865645       -0.21100508572159       -0.09985851715975
C           -3.33479609936085       -0.45864501083945       -0.03699008140672
C           -4.01494879755035        0.70956259450846        0.38356861578153
N           -5.35573460057166        0.81443870762883        0.53616900672858
C           -3.06921203686653        1.71267413054340        0.55063875106074
C           -1.78517944481178        1.21921544442623        0.22012901115560
C           -0.73559211535036        2.09870725451978        0.10799777634907
C            0.60086819726698        2.05263784720323       -0.33892246445188
N            1.11594888086924        3.28379206145453       -0.64417839764948
C            1.49786918296690        0.96930193268151       -0.39274268901858
C            2.77564560983691        1.31994890285618       -0.90310153258165
N            3.73841312163797        1.64079559587539       -1.44191226321777
C            1.41480485015056       -0.39047051147571       -0.02129059230253
H            2.95443967256360       -3.27941162213227        0.60672927952241
H            0.37904158805320       -3.57717537924183        0.08392899822770
H           -3.80998351506930       -1.40240050554974       -0.23046069555130
H           -5.73425964442135        1.61837504725717        1.00452346852107
H           -5.91290079855159       -0.02145163526332        0.51926312091578
H           -3.27648436831829        2.72578395166147        0.84119635428801
H           -1.04001094155917        3.11914847369752        0.32896000277565
H            2.05531369937047        3.36609416582050       -0.99205087896591
H            0.50375001202487        4.07299640750091       -0.73777758766941
