27
 energy: -50.931818184295 gnorm: 0.000964215493 xtb: 6.6.1 (8d0f1dd)
N            3.54434508544579       -2.47077679653696        0.60368739500837
C            2.56877543704775       -1.89206428593457        0.41982945851579
C            1.32984980709900       -1.22673825431871        0.22247280007808
C            0.21705643583941       -2.08204611202817       -0.01455511459033
N            0.52020083540230       -3.41318143609584       -0.02603660476790
C           -1.12989477141219       -1.80066303340401       -0.25916262187990
C           -1.95894639308943       -0.68990619722068       -0.21827257451416
C           -3.34292571747692       -0.79638491519338       -0.27794221265969
C           -3.86705419408436        0.44988881373227        0.12378462952747
N           -5.15838039299341        0.77336649968107        0.27620593129838
N           -2.90613689245651        1.35111131999636        0.38797760026027
C           -1.73235098204241        0.76999720135422        0.12829680651710
N           -0.67696951224985        1.51162788284719        0.08711491791681
C            0.60347087986753        1.34045340132430       -0.03881082719960
N            1.39175502813498        2.38962234052149       -0.26630364722456
C            2.64667085870501        1.93247092180457       -0.10458833696400
N            3.71099195384611        2.72171430214711       -0.24226411616884
N            2.76218625040759        0.62644353485948        0.19232785788163
C            1.51104509109477        0.15303515538245        0.18134943528872
H           -0.19893304962106       -4.09649536303135       -0.17605298595772
H            1.45856545555587       -3.72361664226594        0.15406311474671
H           -1.70232810119391       -2.71204422249232       -0.42591205336928
H           -3.91610106813381       -1.66728776709966       -0.53295291034387
H           -5.37992897335827        1.71496572397824        0.54554764843141
H           -5.88689177007243        0.14996075192858       -0.01972392490364
H            3.57240735602988        3.69337441037566       -0.45209698153830
H            4.62364820230839        2.34921030158725       -0.05267195168859
