30
 energy: -54.892501151006 gnorm: 0.000518041367 xtb: 6.6.1 (8d0f1dd)
N           -3.70480148033135       -3.00111700690036       -0.62801446541940
C           -3.28772198401644       -1.94886573094834       -0.41701180249051
C           -2.87378720572330       -0.64746413860385       -0.14959453556531
C           -3.76206092805164        0.40290539986753        0.22616527933715
N           -5.09455398466442        0.25985498897806        0.35176876969641
C           -3.01128971319719        1.55507728323583        0.43107736083139
C           -1.65308343069719        1.30471493888786        0.16648052172253
C           -0.74359287107557        2.33387597988487        0.08552840207365
C            0.63139482756608        2.38556960647751       -0.24729119003549
N            1.09695068440174        3.59537754609421       -0.67596214241224
N            1.59063977623267        1.49974246352122       -0.11804252774407
C            1.69489455418462        0.20751447055166       -0.03037029157618
C            2.94711419217889       -0.39612902198773        0.21221165875210
C            4.13655998034587        0.26055196674210        0.51232470624100
N            5.14181707943868        0.76429900985043        0.76093314198911
C            2.82244135122981       -1.80285520386918        0.04396170616804
N            3.83319336664658       -2.67826560054650        0.17105778736485
C            1.49073564554333       -2.10177981779767       -0.26825879459769
C            0.73154407594342       -0.93018447796629       -0.26876643354639
N           -0.57275661414073       -1.00003185638538       -0.34742710657624
C           -1.55029620172890       -0.15886221554915       -0.15641937431065
H           -5.66936052151045        1.03501021405330        0.62657962945638
H           -5.52071526478043       -0.62942401908245        0.16014364821558
H           -3.41247682241486        2.51116430084315        0.71524989800523
H           -1.17914771338906        3.31652852954895        0.24142018355551
H            2.09384421728604        3.70054638495410       -0.75445800319215
H            0.52584276914532        4.41866115510408       -0.61518172511752
H            4.75286252753897       -2.35227889089811        0.41228358646638
H            3.67997365064377       -3.65820226546716        0.01578076030601
H            1.08810390259691       -3.08182970059607       -0.43720704139795
