29
 energy: -56.740528922446 gnorm: 0.000498123063 xtb: 6.6.1 (8d0f1dd)
N            4.60609291853482       -0.04674281981969        1.55887655836657
C            3.66363919380974       -0.49060090082484        1.07555457089893
C            2.51187942632969       -1.11821051052444        0.58436134858115
C            2.35259289504834       -2.50818054906422        0.56152373585159
C            1.06720787314601       -2.80075709514217        0.13055736266304
C            0.34390971165378       -1.60767637415669       -0.04376729141542
C           -1.03539630588617       -1.63496437920677       -0.26061356326668
C           -1.57512899952740       -2.91274182332873       -0.59712312283416
N           -1.97267996606861       -3.93580468392736       -0.92286537063171
C           -2.02922743339827       -0.68867566221721       -0.01396158722213
N           -3.28124794471339       -1.15994280879764        0.11372985365359
C           -4.04795117656503       -0.16382066323964        0.55655146058884
C           -3.34191771530069        1.02678732298107        0.67648367019686
C           -2.01598407979182        0.75458517642390        0.28114420459270
C           -1.09931443825036        1.76652148258056       -0.01900821356913
C           -1.65286997315814        3.06920963322084        0.12161724567792
N           -2.07848879314807        4.12720002940318        0.24977640758611
C            0.23443891608731        1.78433242285339       -0.50120237887352
N            0.60491429073153        2.91369522984205       -1.15858719154172
C            1.26367108783647        0.83504384319364       -0.23624225324229
C            2.55903889610977        1.38653716359758       -0.46286672612043
N            3.55929162361754        1.86876389546544       -0.75082377570721
C            1.29417586659857       -0.50057243910356        0.16393192436411
H            3.10764319487804       -3.21841565431478        0.84252384123924
H            0.65426074504661       -3.78521517561275        0.01731325926188
H           -5.08576180562653       -0.33769790368381        0.77211644239672
H           -3.73468040056963        1.97726563470766        0.97924787448149
H            1.57337353591287        3.08682835758735       -1.37236359144322
H           -0.03891879673555        3.68406463820784       -1.23341375843221
