31
 energy: -53.814319601079 gnorm: 0.000873090543 xtb: 6.6.1 (8d0f1dd)
N           -0.00133581762284       -4.07122163976144       -0.01055035869911
C            0.00014434279683       -2.91778005966229       -0.00645807792728
C            0.00137388911800       -1.50935538724126       -0.00213014278236
C            1.25109416585454       -0.96447199283055       -0.39923924544620
N            2.09336343144967       -1.83786778852221       -1.00740055532954
C            1.81750711348577        0.29486195717657       -0.09932608124959
C            3.21502251104062        0.49605140325716        0.02078788450786
N            4.23316647085269       -0.43076523789776       -0.01923866726886
N            3.53797666452824        1.79087662453974        0.22749151075255
C            2.40134791666551        2.45954821916966        0.22096852638719
C            1.26557551589898        1.62535762800799        0.06312305141769
C           -0.00178351382302        2.17336700295959       -0.00409094279548
C           -1.26840263262362        1.62289069830739       -0.06768716092466
C           -2.40595898863284        2.45464061316029       -0.22405648778797
N           -3.54170221822057        1.78413871994860       -0.22363303857838
C           -3.21599591696878        0.49067326202110       -0.01409858517404
N           -4.23247816525665       -0.43777714179803        0.03253948220381
C           -1.81750411834699        0.29202683937643        0.10127594994746
C           -1.24797929202375       -0.96594197300621        0.39990083294725
N           -2.08605980891176       -1.84068416780373        1.01146259132705
H            1.77285567889557       -2.75679792761713       -1.26316609231552
H            2.95507428898781       -1.49608862478821       -1.39755590669223
H            4.03368610629538       -1.32608461047147        0.40548221538429
H            5.10461818761543       -0.02410707793604        0.29406063634159
H            2.39044069513824        3.52658317111380        0.35129054303173
H           -0.00276180419946        3.25958229990928       -0.00633603456371
H           -2.39736496744828        3.52129055321003       -0.35766581664938
H           -5.10589182778865       -0.03276588540568       -0.27751744021852
H           -4.03375321707347       -1.33314630977051       -0.39246251752736
H           -2.94829042437883       -1.50106513771244        1.40300341959453
H           -1.76362613330341       -2.75958591533288        1.26482725258777
