24
 energy: -49.332732780530 gnorm: 0.000988597085 xtb: 6.6.1 (8d0f1dd)
N            4.57078088810344        0.25153492026705       -1.25419169588676
C            3.53440492471903        0.53122253832574       -0.84783518043495
C            2.27844154073652        0.97984675890930       -0.41839903018840
C            1.94807889942967        2.31946054630272       -0.27926187626130
C            0.60398832295032        2.42119962015018        0.09835215571473
C            0.03022129842472        1.15296193504750        0.18526007422866
C           -1.36698395912585        1.00943346921104        0.29158884514738
C           -2.09630766281610        2.22533464540266        0.44076398239151
N           -2.67950986581954        3.19446573289791        0.61788708149971
C           -2.19692927718882       -0.07876225456445        0.04959733306379
N           -3.48919347720563        0.06856685501950       -0.28048759266425
C           -3.85558956919939       -1.10794896347284       -0.77649418437136
N           -2.95094649367586       -2.08937235530755       -0.71025969563985
C           -1.88501148508103       -1.52928228859043       -0.13803975103369
N           -0.93783129110339       -2.19812532440466        0.44674493513800
C            0.27271004118087       -2.05554603755716        0.80394014922355
C            1.26094894935697       -1.14671076583966        0.27081512209323
C            2.53312383057547       -1.77703770352520        0.21067105220986
N            3.50523622917092       -2.38176259450771        0.23675826412563
C            1.13524130595036        0.18020554845403       -0.05551006691581
H            2.61615437838984        3.14287340201058       -0.45149114424386
H            0.07641739925344        3.34481948424904        0.24703651145065
H           -4.83139793206338       -1.26721371205658       -1.19485957466157
H            0.64156696453655       -2.80117836912121        1.50348585681513
