31
 energy: -60.209715259512 gnorm: 0.000874299723 xtb: 6.6.1 (8d0f1dd)
N           -5.12053378631343       -2.06270810672008        1.02205396449188
C           -4.46746368871020       -1.16102736767180        0.73393158455689
C           -3.64185270871347       -0.09278521763405        0.38033355837082
C           -4.03158017426804        1.21021778175205        0.13060638801054
C           -2.90012883752383        1.95764457294228       -0.22025053484295
C           -1.76408412259033        1.14917202595956       -0.18967223074021
C           -0.47168574809138        1.68938735235793       -0.29695208088655
C           -0.43092645519355        3.09400044794531       -0.53631740990770
N           -0.42469198072836        4.21568355372732       -0.77006904114235
C            0.80087349485130        1.17110369523390       -0.07419161043350
N            1.78020917310636        2.09102087496026        0.08465131967484
C            2.91240304302945        1.45170391081739        0.33503354517852
N            4.05975634375759        2.07758683141542        0.60134756319075
C            2.72191972629397        0.02563287339135        0.27677998664766
C            3.75340705484811       -0.86838478623956        0.55853403961632
N            4.66659962915894       -1.50170645070368        0.85394205221289
C            1.36571294951257       -0.18433472583255        0.00811352230705
C            0.85636053273525       -1.46723193661271       -0.31667330697533
C            1.87157363571998       -2.37121600659781       -0.72522218654097
N            2.64274864853571       -3.11593201468710       -1.13688812317289
C           -0.42404678030859       -2.03141868942893       -0.28670279579910
N           -0.52771142571182       -3.34939543767502       -0.60341103725715
C           -1.66771669150015       -1.45732714563710        0.10965898112275
C           -2.21801744250495       -0.21316547570669        0.13782903674999
H           -5.03575038888467        1.58657812902143        0.19834175415723
H           -2.90202287182892        3.00719245454607       -0.44653676032232
H            4.07283195159114        3.08238350925943        0.61265648551263
H            4.89514561258878        1.55283667701022        0.79324447791523
H            0.28549142056012       -3.88232787726611       -0.86059849026278
H           -1.41914925208494       -3.81035869051788       -0.58167644048767
H           -2.39121695543031       -2.23350931111314        0.35361894165456
