29
 energy: -56.755929052592 gnorm: 0.000665221432 xtb: 6.6.1 (8d0f1dd)
N            4.84806826049421        2.39703607821288        1.28121075087807
C            4.24920952547780        1.49509467579180        0.89799141202935
C            3.52987990803125        0.38623991427368        0.44495751564973
C            4.01085589360238       -0.91944703776151        0.31490962758770
C            3.00189512201420       -1.73812559349913       -0.18102757396805
C            1.81801039030204       -0.99439501276861       -0.31992566596066
C            0.55653113486955       -1.57938333813658       -0.42630488736758
C            0.61224776926534       -2.98922206862107       -0.62869569310273
N            0.66695194964801       -4.11470030457258       -0.83889747213386
C           -0.74758848647489       -1.09932822447663       -0.18878768370819
C           -1.79086440267905       -2.00096717495770        0.04666599100020
C           -2.95636035493736       -1.30726557720823        0.40056370063467
N           -4.13809946537041       -1.83322897950412        0.74690626115685
C           -2.66408412409768        0.08316956944119        0.33107949859095
C           -3.61477439033343        1.04458481952453        0.68514149489289
N           -4.46648497105771        1.72290386362782        1.05321081345752
C           -1.32269112744309        0.25797287272865       -0.06538409980507
C           -0.84134060736330        1.50099494599649       -0.49713815858278
C           -1.81320819001251        2.50464650620534       -0.75187931327652
N           -2.54220370509527        3.33655870110931       -1.05262367296863
C            0.46159041037378        1.96286547270395       -0.75886086010845
N            1.60971223537796        1.53197211406134       -0.34483930035989
C            2.18209401635126        0.41975225973778       -0.02980719662921
H            5.00966338589446       -1.23279169926108        0.55828063385567
H            3.10098517048408       -2.78809883574484       -0.38475538659318
H           -1.70672877026949       -3.07077365918659        0.00876256268802
H           -4.27053774107336       -2.82878622357114        0.75912300842919
H           -4.90104917958342       -1.22768741076654        0.99876161660810
H            0.52288543220459        2.93688756452832       -1.23926510179224
