28
 energy: -46.651988192949 gnorm: 0.000622903423 xtb: 6.6.1 (8d0f1dd)
N            2.87519997240179        3.43278697304877        0.14914464103727
C            2.16895735933986        2.52575029252235        0.10579596249769
C            1.29032194470270        1.41640763604531        0.06705983411603
C           -0.02576399333280        1.81417550324514        0.28339018807007
C           -1.26411517662959        1.21296511440811        0.17699545761788
C           -2.44491161204057        1.98054826651128        0.26781049480030
N           -3.55343008289595        1.27920333579623        0.06516410310797
C           -3.16386429564360        0.00988813039376       -0.14591864046145
N           -4.08346787938284       -0.93446250386872       -0.41739136019812
C           -1.73772213868262       -0.14268702985330       -0.08151610428138
C           -1.12139183841981       -1.36791744154696       -0.11009445419687
C            0.19709286098399       -1.79904060400999        0.03232384137786
C            0.43132245686541       -3.18456218681978        0.19736745901169
C            1.78413447509630       -3.41307996856176        0.35475405727566
C            2.43804541286343       -2.19329161383248        0.22817196611478
C            1.49822143399587       -1.15869277356126        0.02989665253659
C            1.93863112884009        0.17058372059187       -0.19286016377817
N            3.20676812901540        0.29325265598711       -0.64200442722442
H           -0.10282296144708        2.87643177329905        0.50711343996638
H           -2.50293555954917        3.03737450353724        0.45918431585474
H           -3.83650127080305       -1.90744049677628       -0.42809971844318
H           -5.04828881082561       -0.67641408237949       -0.30722131398079
H           -1.81008071556546       -2.20494152221024       -0.20008767035236
H           -0.34183219681088       -3.93171137541669        0.22532485310915
H            2.25558706009702       -4.36047476856139        0.54082893978277
H            3.50043815312654       -2.07365437828028        0.35569588523369
H            3.64348262213467        1.19940337336660       -0.69474110846346
H            3.76107296656605       -0.52594746347467       -0.81360118813065
