28
 energy: -52.246209406598 gnorm: 0.000674755129 xtb: 6.6.1 (8d0f1dd)
N            4.11644966080944        2.25150521113648        0.17604212784302
C            3.11362224309803        1.70189913184357        0.10408704323091
C            1.79949636462311        1.15059523761856        0.03664320567844
C            0.85857574668045        2.18540650316920        0.02327905901225
C           -0.52140530900874        2.28107665436169       -0.01936096360644
C           -1.59538749955122        1.39772768977043       -0.01884569734148
C           -2.90561629866736        1.89922188689757       -0.05217796860652
C           -3.82547508695396        0.85004346561032       -0.02107825377644
N           -5.16646886035488        0.93389899584180       -0.02125455514825
C           -3.08057314593225       -0.36261524147649        0.03341371463858
C           -3.67245238008451       -1.62606165112868        0.07168286112742
N           -4.21882864957613       -2.63727458018613        0.09956598990311
C           -1.70011127977192       -0.06972719566213        0.03053379986915
C           -0.77524895261516       -1.10046249096664        0.05342425049489
C            0.60507907516430       -1.19583461979482        0.02296062656460
N            1.08202596235507       -2.46355676527818        0.01155441058053
C            2.39705663384608       -2.40978370671658       -0.03329913490391
C            2.87419159651211       -1.08291463458288       -0.03853624443202
C            4.23693913510362       -0.77796116572273       -0.10276439080734
N            5.37622655437229       -0.64915535476805       -0.17134560610263
C            1.73039519389809       -0.24775951157104       -0.00085527546335
H            1.33999443416506        3.15929792885909        0.04385642210241
H           -0.85897125142677        3.31309727196265       -0.04798180060901
H           -3.16259969346025        2.94169971017062       -0.09256915232777
H           -5.62095096230902        1.82422899312436       -0.11559193444145
H           -5.72189587945148        0.09613030422835       -0.04036119993507
H           -1.22413817255873       -2.09017935789468        0.08181911897525
H            2.99438131309480       -3.30286071044568       -0.06136183951885
