27
 energy: -52.520100688392 gnorm: 0.000395174489 xtb: 6.6.1 (8d0f1dd)
N           -3.95647199879803       -3.18047144035509        0.00200711370344
C           -3.08881609823076       -2.43197096209916        0.00242782084913
C           -1.97272856018497       -1.54250959591188        0.00189948135615
C           -0.76636602447310       -2.25570315129953        0.00002975336970
C            0.56999448547396       -1.91769963698253       -0.00109659178801
C            1.29737540219282       -0.72817862928272       -0.00053766140816
C            2.70844607543053       -0.75132642559185       -0.00211568277488
C            3.54922479257844       -1.86115714370524       -0.00452759650036
N            4.26956715299907       -2.75744694054000       -0.00666403809677
C            3.14112365788197        0.60652653818398       -0.00077584885333
N            4.39694699209647        1.05494819882213       -0.00150497421527
N            2.09311601886730        1.43732982981198        0.00151483868522
C            0.96972635926554        0.70653827192254        0.00168197228728
C           -0.22927884850215        1.43010611488995        0.00376971462314
C           -0.01531938987055        2.84287453112225        0.00597857275388
N            0.17534760011223        3.97143112487301        0.00657969599250
C           -1.57884266535923        1.08449341263358        0.00435172314407
N           -2.44407724415793        2.10894434877386        0.00623693521587
C           -3.67915744306647        1.60769125901059        0.00646296885977
C           -3.68095614032365        0.21847608569445        0.00488988904882
C           -2.33540206594607       -0.19395078144555        0.00347667643585
H           -0.93041258572454       -3.32953093921782       -0.00085926271963
H            1.22523893799144       -2.78510164488951       -0.00277693397221
H            4.55083674333958        2.04846186331982       -0.00052009875698
H            5.17402416490948        0.41796651288296       -0.00352627461474
H           -4.52817797992833        2.26624196244104        0.00776679963079
H           -4.54186008747307       -0.42084595236130        0.00475961294470
