33
 energy: -53.244044649711 gnorm: 0.000595590099 xtb: 6.6.1 (8d0f1dd)
N           -5.68752412899100       -0.20723645171988        0.67602489054647
C           -4.60011037668143        0.07004574784236        0.41649857983478
C           -3.26705855904495        0.34455645455533        0.12397892883916
C           -2.66091603262885        1.58211764670663       -0.05104751542484
C           -1.27738805014602        1.40550360453432       -0.24444540745196
C           -0.48998875168934        2.53942289964531       -0.46277634932245
C            0.86000735008629        2.79737485109735       -0.46630611342374
C            1.97883137444764        2.02287783694504       -0.15657453378674
C            2.23200707297326        0.68781965149141        0.07217413082564
C            3.56612829679215        0.28597019668974        0.43862727609304
N            4.60838897226241        1.12217756654243        0.73003348560583
C            3.65284212728896       -1.09275088854697        0.40672819793069
C            2.41171683276833       -1.60858430933382        0.01939692921024
N            2.17984258159950       -2.96660783468124       -0.07628977054455
C            1.48570485577424       -0.54513181296795       -0.17351894350492
C            0.15091841785112       -0.78350972764137       -0.53469495015429
N           -0.10078453624191       -2.00747064750946       -1.10663641160813
C           -1.02199827952392       -0.02204544543849       -0.25092486983588
C           -2.26274260152169       -0.65041038521787       -0.02875227419114
N           -2.54883469509688       -2.00271052289223        0.05818780959883
H           -3.16505823941069        2.53079830963932       -0.02097595238784
H           -1.09775303111152        3.43045615789915       -0.59369174643675
H            1.10390190599679        3.83872730241302       -0.64910915149633
H            2.87182715576396        2.63518287205652       -0.06886944786156
H            5.41400770429349        0.68930461551016        1.15069908759978
H            4.39248500931306        2.04255408794050        1.07515345547974
H            4.51915031976561       -1.68065980860427        0.65174803656729
H            1.24872246367009       -3.27194221757403        0.16934892522081
H            2.90566358572964       -3.52278369995886        0.35360882075999
H            0.66564318334400       -2.43770589047556       -1.59831055164613
H           -1.01105148150348       -2.12219775588731       -1.52429601522433
H           -3.45259611962049       -2.18715508392112        0.47325813094999
H           -1.81384325120870       -2.58325296813800        0.43570445903944
