29
 energy: -51.179913332175 gnorm: 0.000813145977 xtb: 6.6.1 (8d0f1dd)
N           -3.23259131667488        3.44176070632702        0.01381064026557
C           -2.46842767759708        2.58587224868927        0.00473340400528
C           -1.49230063884296        1.55068871712263       -0.00427123475386
C           -0.20476752003492        2.06245742737878       -0.00595900837342
C            1.08169781594871        1.52605620979644       -0.00763841021806
C            1.63346954172214        0.26135635645451       -0.00745629232226
C            3.05024102161107        0.11973828217653       -0.00187266089920
C            3.98496630490342        1.15175664614321        0.01356640611214
N            4.78870596936615        1.97586329861155        0.03196050079910
C            3.38380322212778       -1.25065780076954       -0.00391402092106
N            4.63259337339338       -1.75589088538008       -0.02478359328542
C            2.18189192800060       -1.97827487395272       -0.01179615103882
C            1.09114353859702       -1.10980935792720       -0.01322919471486
C           -0.20459699472202       -1.62306212285050       -0.01932390880791
C           -1.48036704710284       -1.10380152575676       -0.01713163695166
N           -2.48099811353010       -2.01561185332525       -0.01830360178534
C           -3.63655295793014       -1.35032358793697       -0.01257639313530
N           -4.82195516531404       -1.98652844669970       -0.04740018765923
C           -3.43210689109842        0.05066429749557       -0.00614525781468
C           -2.06078987541096        0.25503429428236       -0.00888838715888
H           -0.19718982286131        3.14931062552563       -0.00405121782280
H            1.84615671547641        2.29937768309811       -0.00685654806570
H            5.42109504370093       -1.13801809594366        0.05705795773165
H            4.77883255164142       -2.74502920743577        0.06356681400393
H            2.11525019441933       -3.05070184082893       -0.01590450567861
H           -0.23339426735657       -2.70860191029687       -0.02578323972205
H           -4.82736670896919       -2.98580323958107        0.05358847992646
H           -5.67070215036754       -1.47282902900282        0.10430222382498
H           -4.20111718769551        0.79855859518624       -0.00109193213997
