28
 energy: -57.034888567650 gnorm: 0.000667942071 xtb: 6.6.1 (8d0f1dd)
N            5.35450900686177        0.80568229125953       -1.38209541163059
C            4.47212231182514        0.21313061533109       -0.94784680084900
C            3.40065507237079       -0.52001400917474       -0.43013511603845
C            3.37148684657596       -1.90469267946992       -0.20471404804777
C            2.14561759227307       -2.26413514606206        0.33377041869513
C            1.31089474151128       -1.13064216490356        0.38994852108273
C           -0.07367183791334       -1.21073115043363        0.45482965194967
C           -0.54940236318048       -2.51697742812652        0.76918809440237
N           -0.88991147508803       -3.55563407586300        1.11240795412116
C           -1.08884379660603       -0.28240433708541        0.12790172308716
C           -2.40230567034487       -0.67595336139620       -0.16741515654216
C           -3.01138248212806       -1.92621143992907       -0.26586238294843
N           -3.63908718567063       -2.87757490158435       -0.41692938296918
C           -3.12579258250317        0.52552092774251       -0.49117635488082
N           -4.40067854036007        0.59702740681600       -0.86512157917300
N           -2.34796325521400        1.59680189110037       -0.36879833262566
C           -1.12248520772796        1.18999138360088       -0.00118253602194
C           -0.21987220264277        2.19396035075645        0.36623500777725
C           -0.79617739077681        3.48884199959937        0.45181799007613
N           -1.22539835620316        4.54486927772533        0.56649830317783
C            1.15618307547202        2.15304080491720        0.65004926260532
N            2.05254569474731        1.29521256169417        0.28822857115585
C            2.17337792922973        0.03712723357819        0.02644774376994
H            4.18574030177559       -2.57403541026121       -0.41485647991965
H            1.85474469314783       -3.25963417341882        0.61212366963658
H           -4.96275770713550       -0.23456842364576       -0.93113063917171
H           -4.79662984598051        1.49942298452416       -1.06590335532338
H            1.57598944208916        3.05358014201180        1.09246842620383
