26
 energy: -43.208002007033 gnorm: 0.000647620422 xtb: 6.6.1 (8d0f1dd)
N            5.76463866244997       -0.75347389771012       -0.36627112007676
C            4.63464145000533       -0.56031756400455       -0.29706540827631
C            3.25699059080855       -0.32028321752631       -0.21465290738905
C            2.63295016063781        0.93396065322260       -0.34371902113148
C            1.25071945582938        0.78464748899245       -0.19847195871833
C            0.42942946799010        1.91832573803035       -0.24829692750146
C           -0.89714682912338        2.20245757202327       -0.06405859407049
C           -2.08522575664883        1.46975929207843        0.17113660613083
N           -3.14983246711682        2.25609095598685        0.44276414054264
C           -2.34641776111741        0.08079512130911        0.11269064944839
C           -3.65190396534444       -0.44107746117348        0.06589588511511
N           -3.68730396353859       -1.77748488986468        0.05502467706222
C           -2.43070545976754       -2.18188994728852        0.12384316373009
C           -1.50409247290274       -1.10788529649530        0.13216922959177
C           -0.14843332028333       -1.39027039412064        0.14776774464031
C            1.00496413146557       -0.63818802199356        0.01606450650660
C            2.26545265184879       -1.27345830300257        0.00462192266336
H            3.14777227986736        1.86170156869189       -0.51842452324187
H            1.01908864147404        2.81179293836167       -0.43768322094528
H           -1.10129526209443        3.26979475563610       -0.09703186968542
H           -3.05830441022044        3.25704338467829        0.44256848082054
H           -4.04965591685336        1.85648824200640        0.63456075579934
H           -4.58487923672447        0.09001659334319       -0.01492994876008
H           -2.18816235365875       -3.22911871355965        0.13959205628595
H            0.05027789956422       -2.45516731558392        0.24175172253049
H            2.42948805135145       -2.32754409943807        0.13640569172896
