30
 energy: -50.882752456924 gnorm: 0.000801835016 xtb: 6.6.1 (8d0f1dd)
N            3.74824601070321       -1.92710890917372        0.47897774442288
C            2.97744962033549       -1.10428966380614        0.24531890291689
C            2.19577511448151        0.03364187445880        0.04806672773068
C            2.79148645564013        1.31922872056286        0.09009294857290
N            4.11993395724451        1.55629396278626        0.17465048769106
C            1.76779370941451        2.26033828997764       -0.01938023947560
C            0.52170693224943        1.61861287263184       -0.07485855942993
C           -0.62224382212195        2.40452404492461       -0.20084159654968
C           -1.99524365491160        2.22313401151790       -0.11669694191448
N           -2.74254104543733        3.38787502295434       -0.20533895729012
C           -2.76744139952557        1.08191631665135        0.17491830988368
C           -2.55909671308065       -0.27219319695762        0.24624136985114
C           -3.66972659173900       -1.12405373755433        0.49307247603214
C           -3.28532458444205       -2.43834115837366        0.35227195703476
C           -1.92669058351485       -2.47341495886803        0.02193040731077
C           -1.41600704413271       -1.17034931818609       -0.02038642511677
C           -0.04178700055230       -0.94240293387696       -0.19581323208601
C            0.65573154716587       -2.12379704044845       -0.58360529167323
N            1.16088971346663       -3.06091104167442       -1.01053290046662
C            0.78569637101443        0.17479841476012       -0.05655392323311
H            4.72980451428175        0.78369333103391        0.38455647952777
H            4.44280237774646        2.48426658157866        0.38333622636511
H            1.91209332918427        3.32534515267040       -0.03533524460600
H           -0.35939941943313        3.45223275637419       -0.32973891914622
H           -2.29775486154398        4.19839671602555       -0.60171084563536
H           -3.72549756890995        3.30144096483768       -0.39983502063732
H           -3.80797634842790        1.34147323407942        0.35722111450368
H           -4.65772348817295       -0.77267089916916        0.72866217449427
H           -3.91501236166009       -3.30076116174160        0.47418350159774
H           -1.35338897342296       -3.36781020779397       -0.13367559797492
