28
 energy: -57.035518251688 gnorm: 0.000705396878 xtb: 6.6.1 (8d0f1dd)
N           -3.58771108383945       -2.97205819270030       -0.43735773803025
C           -2.75340973690736       -2.20780194344248       -0.25967033321887
C           -1.61597021122827       -1.36077327358553       -0.09172451124323
C           -0.45151341100017       -2.14481180790157       -0.05759954228758
C            0.90194598690676       -1.90188902208177        0.03191817521768
C            1.71085766187056       -0.76649265367866        0.03018992257286
C            3.11519782779538       -0.87886453167966        0.06894976453719
C            3.88311655372492       -2.03874124251578        0.14663440796867
N            4.54347314081966       -2.97719007759443        0.21230100349595
C            3.63480621522079        0.44841519227834        0.00050548632720
N            4.91424803752798        0.81629955705302        0.00017704234680
N            2.64075833417895        1.34207624553488       -0.06818074010826
C            1.47498498389707        0.68451475164941       -0.04649049672447
C            0.32123276338105        1.47714950704866       -0.06412231619329
C            0.61950091837712        2.87375938326109       -0.12247158922916
N            0.87714585938174        3.98727062067573       -0.17986650031959
C           -1.04727930364635        1.21876791354072        0.00306471141827
N           -1.82971962024228        2.31277765585570        0.05554445923110
C           -3.08993605086229        1.92370723806473        0.12345050588540
C           -3.21165292464110        0.52287767951609        0.08552516318312
C           -4.44738228668880       -0.12701445230332        0.17787546642699
N           -5.50678559716251       -0.55468055706048        0.28793932096508
C           -1.89213370143620        0.00364081483196        0.00975596711565
H           -0.68368435892399       -3.20495898205447       -0.10380870925865
H            1.49227725202367       -2.81309169322903        0.08410150688867
H            5.65070660896678        0.13457392891803        0.05841199068640
H            5.13139709505245        1.79692268394591       -0.05471698967311
H           -3.88959866544647        2.63724879405463        0.19790196161872
