30
 energy: -50.083440267676 gnorm: 0.000493228509 xtb: 6.6.1 (8d0f1dd)
N            0.80353679313595       -4.40649196800079       -0.21937331821084
C            0.69274933640453       -3.26220060221466       -0.16288101947223
C            0.58363922390812       -1.85242147957211       -0.09836225521612
C            1.82657096353974       -1.26055720117304       -0.25588940527403
C            2.32207559883251        0.02580069871403       -0.11673636541970
C            3.71465906062142        0.28415549354042       -0.18790828429391
N            4.01638048591311        1.55352150245685        0.04959819177302
C            2.84965226568615        2.17282665583088        0.27411710836170
C            1.74372821722192        1.31079985366626        0.19044331383992
C            0.43680868156827        1.79423360075407        0.30289780530572
C           -0.81006935216297        1.25366832709546        0.14224260597171
C           -1.95749554326353        2.13081169435278        0.12039691992831
N           -1.94279451993033        3.48124177678102        0.27721175796253
C           -3.08346743245638        1.39725448851261       -0.20387841977464
C           -2.72418456829010        0.05108474368178       -0.31570883228142
N           -3.63679185222159       -0.92423869283897       -0.64993268744728
C           -1.32986741855339       -0.10681295804219       -0.06690665557729
C           -0.76058512892780       -1.38003820753551        0.09274169346944
N           -1.64568710672401       -2.38620592422482        0.36131243105386
H            2.61036292814702       -1.98566594055277       -0.46761219637160
H            4.48649075716771       -0.43694399576223       -0.39313930717867
H            2.82836002400052        3.22876269571496        0.48322217520517
H            0.43624103081595        2.86514868414460        0.48693028822030
H           -2.83273449152856        3.93603083201274        0.38866283101267
H           -1.16388951071539        3.91345371077471        0.74425072139972
H           -4.07322457708798        1.78841519593381       -0.35378044488525
H           -3.26906571924397       -1.72460304687379       -1.14440349317229
H           -4.48850352177573       -0.55986047257509       -1.05197933460175
H           -2.54188023592893       -2.15228722948521        0.75260241718151
H           -1.28761709685055       -3.31231768871012        0.53049316008942
