25
 energy: -44.282500656083 gnorm: 0.000684516467 xtb: 6.6.1 (8d0f1dd)
N           -3.33371034402814       -3.07591423356168        0.00516383008996
C           -2.56656464842238       -2.22518951728154        0.00640190671969
C           -1.55738456853793       -1.21291045863994        0.00337584920106
C           -0.28410287752191       -1.81335970092177        0.00139349946909
C            1.01287108937411       -1.35281401755118       -0.00078063093274
C            1.61134356148657       -0.09296373890978       -0.00176417683238
C            3.02443238049866        0.04328322575638       -0.00418323898104
C            3.96180915714968       -0.99080875580866       -0.00606450245156
N            4.72635294950410       -1.84853890129764       -0.00654147170754
C            3.29263563192348        1.42417138061728       -0.00450917925616
N            2.18269504120216        2.13735762430572       -0.00259671517628
C            1.12871192424396        1.28327587594995       -0.00090944321427
C           -0.12358407945882        1.87906187326883        0.00116286804392
C           -1.42912651502243        1.42545893520169        0.00323237991089
C           -2.48718556935842        2.34939913360670        0.00494195787470
C           -3.70646878032377        1.67531084753354        0.00689693438617
C           -3.45589447970195        0.31411949164175        0.00649048143116
C           -2.05958923688458        0.08507447042537        0.00417183313976
H           -0.34925219220290       -2.89761984047275        0.00159288020365
H            1.74950239937117       -2.15235203201668       -0.00197962616799
H            4.25888139357285        1.89481218903851       -0.00613452338026
H           -0.03423921277027        2.96142807572736        0.00106656232414
H           -2.36009506021349        3.41623392185557        0.00476065103144
H           -4.67812239452205        2.13355136919193        0.00846765838945
H           -4.20256631305774       -0.45826200975897        0.00768840308515
