29
 energy: -56.751058623974 gnorm: 0.000641019075 xtb: 6.6.1 (8d0f1dd)
N           -4.35662480733876        3.01136765896539       -0.99105840172171
C           -3.86332798803391        2.03765184780857       -0.63368698186278
C           -3.27748557857374        0.84028121453375       -0.21137502932532
C           -3.98703498840770       -0.26875599096170        0.31633801412533
C           -3.08704423833592       -1.24584802379716        0.64279299295391
C           -1.76875402310941       -0.82732136992326        0.27458115934053
C           -0.73394085844603       -1.74279483313274        0.23011240120053
C           -1.06800712411286       -3.02921565441207        0.74178152520616
N           -1.28723234294772       -4.06778473237921        1.17668933581599
C            0.58833971293505       -1.73098122652453       -0.34017409094128
N            0.99774524883831       -2.92498096881238       -0.84253930206004
C            1.52049764528659       -0.68400925180868       -0.33808779952114
C            2.81012067469424       -1.05917957399100       -0.80379268952339
N            3.81638296759459       -1.37875442860622       -1.25331321582569
C            1.45123688716935        0.67296671637381        0.04959064835990
C            2.59101120675832        1.44164238291633        0.35920094507046
C            3.87573777359231        1.00583491853592        0.69810784886580
N            4.92786662123194        0.69282174321485        1.03485107465953
C            2.16207468855760        2.79094068168813        0.38753996671718
N            0.89637089551310        2.90885672970420        0.05803692742878
C            0.38133116608773        1.66371433664322       -0.10063146095284
C           -0.97125558026281        1.58349488079871       -0.36233434173007
C           -1.89507779793296        0.56105358521499       -0.19816285218163
H           -5.05340823682525       -0.31144059819607        0.43783748598768
H           -3.32722480836473       -2.20881337159948        1.05244994511085
H            0.41699864104076       -3.74192704081502       -0.75634906187423
H            1.96100791122239       -3.05605866493518       -1.10673033310934
H            2.76093276803865        3.64752413632320        0.63619565946092
H           -1.40622987916854        2.55438220126659       -0.58016862417957
