30
 energy: -56.471504718479 gnorm: 0.000783786046 xtb: 6.6.1 (8d0f1dd)
N           -5.09550573964759       -1.15544716930823       -0.06316937725112
C           -4.20085746351311       -0.43657436376569       -0.11629491240794
C           -3.20939708954572        0.54114444737655       -0.26073876643907
C           -3.52682403208790        1.82413893126362       -0.77741050392049
C           -2.37446687510408        2.55294317117170       -0.86529640824609
C           -1.27060165782800        1.77135795028096       -0.40350688380541
C           -0.06797428952381        2.39552449082966       -0.18753426528664
C            1.19795242508343        2.04092151857793        0.33043258508623
N            1.92731275101976        3.09755003977095        0.78497845363271
C            1.83897953206999        0.78639220011603        0.29541639682148
C            3.20175204033603        0.84590344465604        0.69640052621704
N            4.26068508474755        0.95470839942115        1.12630230722664
C            1.41663938257368       -0.51040572557749       -0.05698974708409
C            2.35651028724719       -1.52161314157536       -0.36123155022206
C            3.69186350090815       -1.35489413111995       -0.74615654228079
N            4.76824461984411       -1.28095806111238       -1.14080632527182
C            1.71016123219121       -2.77741673585039       -0.35185610640136
C            0.39441174004223       -2.58580782711184       -0.00530684073260
C            0.12915236504529       -1.19533379252988        0.10962412345125
C           -1.18179311912951       -0.75079447712658        0.28329477389536
C           -2.03938742710150       -1.76651222180820        0.79956209457892
N           -2.65264375953162       -2.57468624866624        1.33216908651779
C           -1.81436260092636        0.45396824784625       -0.05839811628291
H           -4.51786954619722        2.13917916959088       -1.04608480362285
H           -2.29282861840642        3.57021233059404       -1.20033414766213
H           -0.11469616937299        3.45808703932431       -0.41503318157037
H            2.88168898977899        2.97884248589810        1.07883937025389
H            1.54495186266641        4.02521121283869        0.76082638382132
H            2.18505442933952       -3.71247529803470       -0.58219439715222
H           -0.34924666497871       -3.35537963437098        0.07878327563697
