25
 energy: -49.069494339856 gnorm: 0.000795168149 xtb: 6.6.1 (8d0f1dd)
N            4.66242543307728       -2.28303987289208        0.00099688082368
C            3.93877176786363       -1.39172200480352       -0.00309618470347
C            3.05521884526254       -0.30499110013791       -0.00068586759811
C            3.43631711933899        1.04181548650607        0.00007466649626
C            2.29071433926814        1.81830652651408        0.00070405048967
C            1.14684651721598        0.99274774129609        0.00047914597224
C           -0.12918063023615        1.54899755860113        0.00044192789926
C           -0.17485697899571        2.97736026406629       -0.00099102391052
N           -0.18890562164844        4.12205586225651        0.00366381804077
C           -1.41993007866865        1.00584505208525       -0.00052896452928
N           -2.45181574379911        1.87410037768303       -0.00115015134760
C           -3.54750394063895        1.12734344333874       -0.00194767081462
N           -3.33688140218270       -0.18769601796972       -0.00175917389893
C           -2.00355842339929       -0.34086837526167       -0.00094824963684
C           -1.50160477742588       -1.65349702094339       -0.00038740116045
C           -2.54232651144559       -2.63013541413897       -0.00012317224457
N           -3.33407871155066       -3.45677210068161       -0.00035629558258
C           -0.22653111295456       -2.19746020570084       -0.00010658243426
C            1.06078081109616       -1.66372316606428       -0.00031873822186
C            1.63266852257714       -0.40441235727586       -0.00010289765936
H            4.44910637625211        1.39992962359280       -0.00024466283512
H            2.26713681005001        2.89195559642515        0.00103066001277
H           -4.53339782712540        1.55058642769299       -0.00265071060190
H           -0.23533420363645       -3.28293813999355        0.00012253586021
H            1.81983314240559       -2.44282859509472       -0.00053549671539
