27
 energy: -47.717636721841 gnorm: 0.000901965532 xtb: 6.6.1 (8d0f1dd)
N           -4.22726112392300       -2.16597476819632       -0.10842909309140
C           -3.08077178678865       -2.09271862296247       -0.07694866676436
C           -1.68507940218717       -2.03208973727176       -0.04062860041911
C           -0.83374069478713       -3.14758629149334       -0.01864154005522
C            0.46788028169664       -2.69700063012049        0.02531624221281
C            0.49979109461364       -1.27972712115908        0.01615711605190
C            1.73635205807928       -0.62076094450251        0.03090201581273
C            2.82239247738105       -1.53626594243794        0.14948254828550
N            3.72675526402484       -2.23320872315783        0.27287355824960
C            2.18617368917417        0.72590379744594       -0.05980648627923
N            3.54396596980502        0.88897671173366       -0.17083629817690
C            1.48384289817824        1.93831964431568       -0.06747578694014
C            0.17176949225475        2.35952621463889        0.00107897297291
C           -0.14827761465974        3.73814172540063        0.02281231143327
C           -1.52757835267050        3.82965468790898        0.07878731222022
N           -2.11216183248402        2.62751321342362        0.08142070433971
C           -1.14281030490956        1.69869806932403        0.03865065700650
C           -1.55453602225902        0.37667962720975        0.01006583606053
C           -0.90765137817825       -0.84226486141338       -0.01711004222874
H           -1.15354669544097       -4.17305938320900       -0.03415819693358
H            1.33301223779919       -3.33240626425540        0.04592947850459
H            4.16712100815807        0.10630141906105       -0.07916674316892
H            3.93930545092641        1.80905554535202       -0.10416376014016
H            2.16462313795704        2.78563065819614       -0.12660756535780
H            0.55396209800952        4.54956851755952        0.00386306689152
H           -2.12783709363056        4.72085467684898        0.11447226867107
H           -2.63889051543931        0.30330733436063        0.01385246954266
