26
 energy: -47.221094573781 gnorm: 0.000931592900 xtb: 6.6.1 (8d0f1dd)
N            3.36853322649618       -2.88612880787795       -0.01898266552811
C            2.45723865404949       -2.19080594155380       -0.01319641313774
C            1.27480039395860       -1.39502710552432       -0.00570899786733
C            0.10858246845760       -2.17822609568128        0.00340270082320
C           -1.23781411117479       -1.91788824457576        0.00941842858415
C           -2.01987256908679       -0.75724662828900        0.00831886272167
N           -3.34417354712860       -0.91125287021048        0.00922129905779
C           -3.84899462315711        0.34408491425675        0.00686268052723
N           -5.16686706729317        0.57056788044092        0.02589412482668
N           -2.94230139975949        1.32329636943263        0.00444679695330
C           -1.74603190056148        0.69686528079975        0.00559300554809
C           -0.61006938415897        1.47918458258199        0.00515134748760
C            0.75458295066016        1.21445394685710        0.00135254916905
C            1.70027110043218        2.23602483329559        0.00251911493310
C            2.97035161171298        1.62359671703175       -0.00649036094836
N            4.17130664034932        2.21870282551995       -0.02591540148260
N            2.86955941011173        0.28509914355365       -0.01273728655587
C            1.56682709082160       -0.03046849132039       -0.00684774479877
H            0.34071959260896       -3.23990101263289        0.00495845845478
H           -1.87067710770078       -2.79885520897495        0.01504431746996
H           -5.50324524656170        1.51264438789081       -0.05137244034094
H           -5.79443935022101       -0.20880804809386       -0.04768239922742
H           -0.85161751883009        2.53780710166615        0.00766105648916
H            1.50408302993292        3.29034537379274        0.00849709423546
H            4.25892608461713        3.21513565343037        0.05172945810197
H            4.98867892622510        1.63583689418446        0.01436887320395
