30
 energy: -55.700046985649 gnorm: 0.000872792286 xtb: 6.6.1 (8d0f1dd)
N           -4.03914534781562        2.74679086638722       -0.55624845850037
C           -3.69594077560216        1.67833030803618       -0.30559382907363
C           -3.28326738404261        0.37874387630993       -0.00821072696780
C           -4.11308416136788       -0.64476813839580        0.49230763860892
C           -3.37037828766182       -1.79434052777795        0.65425575050247
C           -2.04407001740086       -1.55964677349648        0.22446113267753
N           -1.22949500857571       -2.55510380364885        0.04040534515782
C            0.02478667434339       -2.74805833043613       -0.28337285902322
N            0.26928153412340       -3.99159973925080       -0.77806949092241
C            1.16746117368157       -1.94250796986579       -0.04560480298517
C            1.35913946068261       -0.58657386942786        0.06566919718897
C            2.68036434096867       -0.07487398357219        0.26719029980828
C            3.81653271534532       -0.84308855213670        0.51290563916466
N            4.76400381823992       -1.46504555267309        0.71277080845041
C            2.67257275500593        1.32116184678306        0.13424685102463
N            3.72153214384722        2.15168529089857        0.23838015039122
C            1.33119526536221        1.71128129612893       -0.13775639812843
C            0.95422917265551        3.04128059575580       -0.32715534416122
N            0.70957009580875        4.15464740363525       -0.47932490856680
C            0.49192299702926        0.57583149487543       -0.15375253984338
C           -0.88667753960871        0.73531988867344       -0.29322041326632
C           -1.95763038201991       -0.11269249861256       -0.11993823121050
H           -5.16126489606362       -0.52883200460202        0.70177429103659
H           -3.72951815905480       -2.74529273958504        0.99650246145410
H            1.20677789938621       -4.32940672492591       -0.89570144745615
H           -0.49544770789374       -4.64181920332273       -0.82340445969784
H            2.08332524562079       -2.52049053417618        0.04133735933697
H            3.59699901813789        3.14115166743252        0.11345206442416
H            4.63730840837301        1.79006383245767        0.43923635082723
H           -1.17614546870367        1.77235601183113       -0.45521705385098
