25
 energy: -47.489273077271 gnorm: 0.000926619808 xtb: 6.6.1 (8d0f1dd)
N           -3.33751863097707        2.78099751457390        1.51205454236308
C           -2.97761288458980        1.82999142097892        0.97640069928606
C           -2.60090027302770        0.64891684872875        0.33536474808154
C           -3.51040118912742       -0.22474502569975       -0.34160577590325
C           -2.82681442168089       -1.26041914858332       -0.89520601785735
C           -1.44819913066977       -1.17937155441335       -0.48890708968202
C           -0.65540709751492       -2.27090389048664       -0.46616459494070
C            0.61633255754264       -2.45065409113291        0.21838338042711
N            0.75923449045634       -3.62708272616938        0.86974759391231
N            1.65402094740105       -1.69242415403251        0.17050297770754
C            1.89691455323279       -0.42860406148836       -0.05166103492826
N            3.08676521517485        0.01974669008936       -0.40268399450623
C            2.99136713153689        1.37313916338453       -0.27134890997051
N            4.02975936386651        2.16144342141619       -0.53669097475338
N            1.81361625125963        1.85405159861558        0.13239179355099
C            1.01603539716320        0.78316553854820        0.23474500638800
N           -0.25611874331094        0.91891007483420        0.43735586199225
C           -1.29616715214743        0.16222466712571        0.18875266222878
H           -4.56924930893226       -0.04732839114444       -0.40547640504051
H           -3.23882215411754       -2.07342459726623       -1.46361972868553
H           -1.05966606333540       -3.18139070174045       -0.89636020455407
H           -0.00031306352473       -4.27877786854365        0.94479002424454
H            1.61487608692474       -3.79779322205483        1.36919717823108
H            4.89013080134972        1.75151940605495       -0.85231910060341
H            3.93286243474790        3.15266249600529       -0.40869031718900
