26
 energy: -47.994119255341 gnorm: 0.000719680897 xtb: 6.6.1 (8d0f1dd)
N           -3.67274462610452        3.04300629736633       -0.01317223984037
C           -2.72735853960719        2.39634745971101       -0.00637060206758
C           -1.50017359504376        1.66970265389242       -0.00064867658056
C           -0.37716655046559        2.50685990859447        0.00308570307390
C            0.98601997321718        2.29172528596525        0.00458136186511
C            1.81406077160305        1.16907240265939        0.00463219818272
C            3.19467425276090        1.31509328538001        0.00192360324992
C            3.82610173952851        0.04855659724992        0.00654454207177
N            5.15432172585228       -0.16248775490680        0.02320413262296
C            2.82823449668311       -0.92911832250800        0.01499476835739
C            1.56627030467075       -0.31480179325390        0.01120091628730
N            0.51332198453231       -1.07689324727429        0.01021907396960
C           -0.77817103895057       -0.88047208007766        0.00348121463676
C           -1.66341122870225       -1.99503694032940       -0.00174713327513
C           -1.30583468508452       -3.34314291762576       -0.00171152739763
N           -1.02939493170607       -4.45824780743075       -0.00071805730430
C           -2.96360938426402       -1.46734758990415       -0.00748514947310
N           -2.96967067813986       -0.14395766798583       -0.00639476952667
C           -1.69008225883465        0.28767926375061       -0.00055599073548
H           -0.65036357201194        3.55783417703738        0.00339047525286
H            1.55896406310073        3.21508586206559        0.00583165806498
H            3.71680402226149        2.25583046690494       -0.00351404712961
H            5.51504528021774       -1.09796383457539       -0.03588537432118
H            5.79385851692640        0.60802826372959       -0.05418106299545
H            2.97136592486393       -1.99220533379333        0.02103503608026
H           -3.88585593500344       -2.01978176634168       -0.01224794046849
