26
 energy: -47.218299446069 gnorm: 0.000957132448 xtb: 6.6.1 (8d0f1dd)
N           -4.58162919536070       -1.65193223048056       -0.84458889289906
C           -3.71640938277316       -0.94248516068285       -0.57298555347415
C           -2.70323547653319       -0.04625721254430       -0.24593348526305
C           -2.89277761833436        1.34332163764285       -0.08259809665746
N           -4.05818333476046        1.99547008856326       -0.23622903797519
C           -1.65234019360910        1.90919773592797        0.25986842557696
C           -0.66727238451259        0.92549996302129        0.30375185446661
C            0.66640726542826        1.27692829024399        0.49871833142213
C            1.85415370604490        0.59020474240403        0.35248028880371
N            3.01419688422579        1.25842438614593        0.25669725104784
C            3.89050159208073        0.35644801650894       -0.21786964878137
N            5.14501242066599        0.68533399518351       -0.53707584349303
N            3.42623842992661       -0.89957358272136       -0.36959711249836
C            2.15912600544668       -0.84366085745374        0.04021586231902
N            1.49571191676165       -1.92805662945892        0.32380954942518
C            0.27032725254969       -2.27860477207249        0.50454115689015
C           -0.95403118339857       -1.68111035614581        0.14252428652361
C           -1.34364033548983       -0.36880386369520        0.01847516421648
H           -4.11519205632738        2.98411646592031       -0.07390923070719
H           -4.89012410923961        1.48665691559485       -0.47818978772010
H           -1.48511767175267        2.95586405704452        0.43632020141161
H            0.82396488577204        2.34395769020509        0.62223912874593
H            5.77519711735878       -0.04024295956518       -0.82640894452902
H            5.48345530370789        1.60049956112506       -0.30454441100435
H            0.18021619107294       -3.28029260329314        0.92301026451481
H           -1.76462100775267       -2.39428762101606        0.02256936583571
