28
 energy: -51.446255537383 gnorm: 0.000767896105 xtb: 6.6.1 (8d0f1dd)
N            1.86195516570452       -4.05786919023695       -0.05087338462657
C            2.07226449757223       -2.92865734181380       -0.02870082595629
C            2.38769426176584       -1.56744605215753       -0.00238533903634
C            3.68523769550713       -1.03804616022207        0.02775044512767
C            3.61025548659981        0.34146064763566        0.04368111621534
C            2.26425306570548        0.76344649188767        0.02459701430461
C            1.96492669678598        2.10648730052074        0.01814271289470
C            0.79573923889377        2.89097315589711       -0.00018894383458
N            1.02744971569290        4.24048022624418        0.01845771927341
C           -0.55708711185936        2.53767454075091        0.00244818634793
C           -1.27624343800278        1.35866070984434        0.00463450279113
N           -2.61975724875374        1.49511613996555        0.01015191121077
C           -3.16392438512749        0.27704040023729        0.00409854350302
N           -4.48801055783151        0.08305428965630        0.00497671892050
C           -2.17111842806890       -0.74588837906088       -0.00940439093577
C           -2.45969547096947       -2.10700480917680       -0.02030171386789
N           -2.79995858370156       -3.20560011630535       -0.02797975671344
C           -0.92493920559472       -0.08546774884048       -0.00704892331953
N            0.18536352289266       -0.77989935533260       -0.01406472798209
C            1.44836548141024       -0.49806827496473       -0.00071168203192
H            4.58661402518329       -1.62432115491080        0.03674437439898
H            4.45331342313773        1.00875862255909        0.06678748746547
H            2.86343251731712        2.72122961472747        0.03015272529732
H            0.26221788120242        4.87945185191858       -0.10117798163688
H            1.95812151990756        4.59659325166726       -0.10313377776046
H           -1.23003093770846        3.39052234086979        0.00405277985705
H           -5.10168280283279        0.87737590929797        0.03275993961728
H           -4.86165070842783       -0.84939217805794        0.01750009407665
