29
 energy: -56.754108390023 gnorm: 0.000828195148 xtb: 6.6.1 (8d0f1dd)
N           -5.06925416265077        1.07954005435631        0.25529002103874
C           -4.16880607486830        0.36642531620654        0.29061984822584
C           -3.13585305257521       -0.56851585751623        0.40400975476843
C           -3.30233650503336       -1.80100631747080        1.08122807949015
C           -2.12130730012407       -2.50748653758777        1.05081652748682
C           -1.15845710664663       -1.74857348375026        0.34814141424087
N           -0.07128193413758       -2.28344493351542       -0.12767256040865
C            1.06452995529657       -1.92918844843912       -0.63528428766689
N            1.65249990443766       -2.79444682049562       -1.48694414032487
C            1.83724189979554       -0.78316534336546       -0.19590767311902
C            3.20727014087557       -1.10400317431387       -0.05677140125139
N            4.29231035933087       -1.47837628912407       -0.02548551352287
C            1.40360601117663        0.50577274305761        0.04625629242308
C            2.31679594435400        1.55467491547257        0.38832758333556
C            3.60493967187938        1.42401550141356        0.91640958898153
N            4.64767739945551        1.39762228238206        1.39777009025832
C            1.71195464118360        2.78222068038026        0.10950539617371
C            0.42250110989648        2.55428223185997       -0.35309921240352
C            0.14203927057867        1.17572836344154       -0.33153296492826
C           -1.18339249609993        0.72240588732434       -0.44678179439321
C           -2.07825802880981        1.70620935227157       -0.95919632745441
N           -2.74896114704941        2.47410369047969       -1.48119186534583
C           -1.78338878532600       -0.45393727869659        0.00367723157726
H           -4.22418893274725       -2.11670164694586        1.53430276347130
H           -1.94651594896305       -3.48746815698676        1.44956892619712
H            2.62658722386030       -2.69767248604559       -1.72096304960481
H            1.19723406280070       -3.67471752342695       -1.66233745089126
H            2.17484438125236        3.74165421535790        0.24619268453072
H           -0.28582729884216        3.31897658317572       -0.61051265798489
