28
 energy: -51.446499960665 gnorm: 0.000654659595 xtb: 6.6.1 (8d0f1dd)
N            3.99016324238797       -2.19765845886884        0.52066643602752
C            3.34342521757438       -1.27081312730678        0.30745275574335
C            2.69144305113522       -0.07648658792029       -0.00839596318655
C            3.39264748772525        1.00157577633199       -0.60936824292511
C            2.51820136358694        2.02062442448381       -0.85990025754828
C            1.21941859163400        1.65935097205617       -0.39343431703739
C            0.26622908875047        2.62125175534655       -0.22346696902931
C           -1.04982125763728        2.56376368970134        0.33628639116642
N           -1.46959494647088        3.66746236725694        1.00060932387748
N           -1.95582061881054        1.65556343321752        0.14801804697530
C           -2.01295273736289        0.38585378213562       -0.12973938829128
N           -3.17100995964268       -0.13728460785332       -0.53459488792299
C           -3.05568766387238       -1.47286622785979       -0.42310971598487
N           -4.06194194929832       -2.28256628620064       -0.77705093986181
C           -1.79264586028013       -1.86537465864216        0.07859862115800
C           -1.04161627718125       -0.70382126053010        0.19716137256173
C            0.34589967845057       -0.67637939825441        0.44197059314951
C            0.79646327431892       -1.90734031169316        0.99013681008003
N            1.03938896291847       -2.89423677853575        1.52286879521259
C            1.32320516842348        0.25710704033563        0.08822120926217
H            4.44508645339595        0.98500675884476       -0.82750077109965
H            2.75760679111858        2.97617082876555       -1.28754949258571
H            0.56948738982986        3.62170624456148       -0.51494711604548
H           -0.88362529609305        4.47670842018188        1.09373859327943
H           -2.42519015532696        3.70490474845671        1.30917560367569
H           -4.00388859699719       -3.27198693254471       -0.62000875375978
H           -4.91301632386260       -1.87236707233302       -1.11688670390855
H           -1.47181665351481       -2.87206395523342        0.25980872981671
