29
 energy: -51.175345407823 gnorm: 0.000631534748 xtb: 6.6.1 (8d0f1dd)
N            2.89592079819939        3.03224523616426       -0.18682154278674
C            2.04512386062134        2.26693084856481       -0.11067738559391
C            0.90314558745311        1.41891340318591       -0.04108631071111
C           -0.25887419267289        2.18660905299896       -0.01144721059701
C           -1.62397938390399        1.94079798182981        0.03841316899600
C           -2.44301709843825        0.82411613661793        0.02614899315748
C           -3.83558573281190        0.97417712074489        0.05969015253783
C           -4.44814205397678       -0.28170392291011        0.00628611201134
N           -5.77674197670142       -0.52935081605209        0.05386067962433
C           -3.43116512894048       -1.25480238527437       -0.05676367723003
C           -2.18377133213855       -0.63551653772073       -0.04320166091024
C           -1.02458815660545       -1.39671661094242       -0.07423227101424
C            0.33736956203086       -1.15612288209647       -0.04539814835330
N            1.10894373435649       -2.27093425020367       -0.04389849781377
C            2.37964897047436       -1.89238088931364       -0.00124711788441
N            3.40247771875131       -2.76046601845583       -0.00000551376177
C            2.49992897728719       -0.46617273916638        0.01494162382202
C            3.75112067845084        0.14007036472074        0.08887949755259
N            4.84840665011733        0.47867536585526        0.16861808842460
C            1.18879535141449        0.04091694469800       -0.01570467231929
H           -0.03231180340183        3.24978367345133       -0.02385931738806
H           -2.20252575828853        2.85948416606634        0.08242325153321
H           -4.35192378506035        1.91511252828918        0.11281373336178
H           -6.11313970721106       -1.45694220338122       -0.13407135433718
H           -6.42418784733220        0.23326948221702       -0.03581405021757
H           -3.59409395533702       -2.31582126754016       -0.10389171349470
H           -1.21529872422424       -2.46536988631184       -0.11004200252306
H            4.34211408710744       -2.42329756102128        0.11501876861609
H            3.20736888608080       -3.74330740331422        0.06002137219906
