25
 energy: -44.273329234796 gnorm: 0.000509739372 xtb: 6.6.1 (8d0f1dd)
N           -4.35035163487097       -1.52651720650724       -0.00265564609161
C           -3.24509591475268       -1.22711782973700       -0.00158684911609
C           -1.84021251258827       -0.96735235250500       -0.00041633143583
C           -1.08170504195152       -2.13745043658092       -0.00141315577246
C            0.27587041264672       -2.40277597415207       -0.00095761245003
C            1.44978114187698       -1.65915380578866        0.00092179730401
C            2.67874441798754       -2.34081815179693        0.00087022393980
C            3.73226160341142       -1.43038982362797        0.00318111901734
C            3.20408361795513       -0.15222468558986        0.00463014434750
C            1.78874471269289       -0.21875176322574        0.00327584606177
C            1.03073318716732        0.94620151824756        0.00391807658691
C            1.81838852394365        2.13902710836835        0.00504295631205
N            2.43781419354645        3.10322180725902        0.00586016362533
C           -0.34744937523336        1.22819914764857        0.00332975785481
C           -0.84006621959149        2.54598724658716        0.00456981102638
C           -2.23155285449701        2.46035463260018        0.00341517479845
N           -2.64764075268927        1.20140128855190        0.00155660768671
C           -1.56000122164949        0.40120532152807        0.00140712884406
H           -1.69840987423953       -3.03068336703675       -0.00291954463063
H            0.48642726611592       -3.46861303343926       -0.00233211873712
H            2.77907408307765       -3.41090176649654       -0.00069976201201
H            4.77750884606641       -1.67804449552096        0.00373509891618
H            3.77414584931819        0.75797697406612        0.00657391189080
H           -0.25905993135718        3.44728771083341        0.00619561776278
H           -2.93933654338552        3.26848293601457        0.00386560577094
