25
 energy: -43.483936200864 gnorm: 0.000694082466 xtb: 6.6.1 (8d0f1dd)
N            2.75568503462074       -3.25044434411049       -0.00492544163318
C            1.91436237587312       -2.47091931557894       -0.00669995490537
C            0.83398691835166       -1.54242741787702       -0.00797045819166
C           -0.39174725499052       -2.20161946596605       -0.00503824029204
C           -1.72454173776056       -1.81276435370590       -0.00072186882572
C           -2.40249460225309       -0.60664404205959        0.00104767343900
C           -3.81144009165780       -0.55433618716362        0.00767852635019
C           -4.16419268025916        0.78442092096448        0.00532765319617
N           -3.09839832859065        1.59171193145500       -0.00257493440610
C           -1.99946985633325        0.81969753765368       -0.00528648946611
C           -0.78419306992989        1.48115169959473       -0.01356967343248
C            0.54650020341063        1.09880582089816       -0.01530740669374
N            1.44360109354269        2.09747794771703       -0.01771683817601
C            2.67040721064764        1.55336678387285       -0.01471834584896
N            3.77215279955041        2.32087114933113       -0.04234962470400
C            2.60960939200380        0.14568664351717       -0.01050592036345
C            1.26068744991424       -0.19942759886077       -0.01080004346186
H           -0.27103634579349       -3.28197291472308       -0.00486368759083
H           -2.40356738285036       -2.66144911622322        0.00266791742344
H           -4.47472100778188       -1.39793726497459        0.01353910546238
H           -5.15539366422410        1.20223814591744        0.00909323908240
H           -0.90178193758654        2.55972076912095       -0.01800650979666
H            3.66236096345648        3.31613329459925        0.03674122554425
H            4.68085666300440        1.91071484975230        0.07272979826062
H            3.44888910743546       -0.52224973895081       -0.00801028317022
