24
 energy: -43.767369823411 gnorm: 0.000496137505 xtb: 6.6.1 (8d0f1dd)
N            5.04464564571005       -1.16041128320626       -0.01507642293201
C            4.11119336026035       -0.49133736187594       -0.01129055336808
C            2.99738210583548        0.35462640478960       -0.00648467151430
C            3.04124344893469        1.75773583424354       -0.00667461680495
C            1.75010248981061        2.24815564327415        0.00092570780906
C            0.82290683292854        1.18555416437412        0.00550916452778
C           -0.52817149659258        1.42710827685288        0.00354315385072
C           -1.65156444011813        0.59658332502386        0.00173490987127
N           -2.85707305290928        1.17173306963755       -0.00361256753384
C           -3.73714792087084        0.14660402193223       -0.00413663606015
N           -5.05643149524648        0.34419122884210       -0.00785278793958
N           -3.18553186349423       -1.07485529434879        0.00080803097915
C           -1.85909000962748       -0.86489100716249        0.00475281621039
C           -1.01851684851767       -1.97363996892917        0.01501835265865
C            0.35945408202244       -2.14325818186670        0.02104843518418
N            1.40869718204625       -1.35566699916946        0.01120906389175
C            1.64288258824826       -0.07689598129905        0.00323233800096
H            3.94364424893031        2.34259254243499       -0.01159716537998
H            1.47668432433460        3.28783217473000        0.00261065126151
H           -0.80883674265662        2.47641507920577       -0.00001078360073
H           -5.41497092517534        1.28139033576735       -0.01803026195761
H           -5.67241811458124       -0.44791108159120       -0.01361017312100
H           -1.58432148035426       -2.89850373876457        0.01963834501902
H            0.67288600288319       -3.18691629249611        0.03359988644826
