27
 energy: -52.515527345448 gnorm: 0.000724610475 xtb: 6.6.1 (8d0f1dd)
N            5.74132069818424       -1.25860196066556       -0.00073254491819
C            4.80050641018010       -0.60049905052301       -0.00092271664653
C            3.67285717061317        0.22785729636701       -0.00528532998054
C            3.69750632253890        1.63549227113462       -0.01348939561537
C            2.40265396951698        2.11438441323052       -0.01468877753726
C            1.48982507577426        1.03639267530882       -0.00737870119129
N            0.21488327909903        1.29272625490620       -0.00770503071404
C           -0.86941660655347        0.55958727702977       -0.00260607115135
C           -2.12197857369126        1.22310163263370       -0.00508990779094
C           -2.32857971208918        2.60477904988391       -0.01200899298962
N           -2.57187367897148        3.72740293654540       -0.01974694336559
C           -3.16741511440294        0.27032286316111        0.00102155138354
N           -4.47986864188297        0.53283314660582        0.00080976776464
C           -2.56757819686259       -1.01209311572142        0.00770470961934
C           -3.29556372448655       -2.20423460066256        0.01539706254921
N           -3.92946518121915       -3.16310013225198        0.02047270180044
C           -1.15639272531532       -0.89326793910443        0.00581423593054
C           -0.35652382805958       -2.02896641707801        0.01192881945639
C            1.02031358075434       -2.25645086178975        0.01242099801703
N            2.09551248235261       -1.50719402921075        0.00676338316649
C            2.32761822657391       -0.22491507879614       -0.00111902787716
H            4.59490807465061        2.22813016512856       -0.01779234139214
H            2.09937543866546        3.14425527714043       -0.02012963326557
H           -5.14852353266786       -0.21837206644024        0.00536906312021
H           -4.80415975959819        1.48477684037502       -0.00441718821090
H           -0.93381970836999       -2.94905125715629        0.01780531856131
H            1.28942942106918       -3.31120438174976        0.01885341037790
