24
 energy: -44.543267920697 gnorm: 0.000623574686 xtb: 6.6.1 (8d0f1dd)
N           -4.40400585154403        1.55815805830647        0.00105869006123
C           -3.29366316042009        1.27625328647914        0.00164762161296
C           -1.89588173717751        0.98301862023945       -0.00025110412509
C           -1.14195988163690        2.15803837395742        0.00142305084447
C            0.21163125607866        2.45062978317799        0.00106677449694
C            1.38699862400162        1.71439104016629       -0.00081098866938
C            2.64300228643336        2.35558072189879       -0.00074030740746
C            3.60913053915458        1.35951416808192       -0.00258623851551
N            3.06811480351864        0.14056945635656       -0.00372091024288
C            1.73336350607518        0.27773309322899       -0.00286283449111
C            0.99080405612218       -0.90463883008587       -0.00396363538738
C            1.80824136508728       -2.07790718803513       -0.00436947189135
N            2.46731283060043       -3.01310139802165       -0.00831395669388
C           -0.37396568879498       -1.19344524311872       -0.00395696913611
N           -0.69450270816391       -2.49843445091208       -0.00564489981563
C           -2.02071474497959       -2.60058538943763       -0.00561769823171
C           -2.63850049863172       -1.35459300896617       -0.00374908320194
C           -1.61457741509202       -0.38864902229506       -0.00257309777581
H           -1.76814950082626        3.04572428853548        0.00330898483525
H            0.40589676718613        3.51968982685666        0.00263368530500
H            2.80931199377841        3.41543318766322        0.00052116919100
H            4.67748781499958        1.47423445485838       -0.00312000693141
H           -2.48949226987552       -3.56720198148527       -0.00692340544625
H           -3.69379649489355       -1.16288566914918       -0.00329838728391
