26
 energy: -47.999770539151 gnorm: 0.000724935394 xtb: 6.6.1 (8d0f1dd)
N           -3.54054701996435       -3.22563438900159       -0.00248053216675
C           -2.62536208141791       -2.53493059691047       -0.00068480333015
C           -1.45830810767808       -1.71628295997341       -0.00098355772917
C           -0.30188105228331       -2.49663404540508       -0.00114207638061
C            1.05884649513782       -2.22890709823248       -0.00088390833378
C            1.82209857946567       -1.07336947670119       -0.00026178044414
N            3.15878076505852       -1.23499203525401       -0.00017817732327
C            3.72371828948171       -0.01938697230586        0.00051726329978
N            5.05515441188596        0.12635781898200        0.00095579636556
C            2.75278671640279        1.01039314229105        0.00091483699300
C            1.51284790170981        0.38253988624487        0.00042451453668
N            0.41118282852574        1.11099139140491        0.00060357135148
C           -0.85239789983478        0.87207868943134        0.00022187460099
C           -1.74769733504523        2.00278574921365        0.00089289013348
C           -1.32935407412160        3.33630309789057        0.00268329512087
N           -1.00097433245496        4.43702168511941        0.00031525309219
C           -3.05444031073499        1.54381159621979        0.00030807931753
C           -3.04437724775597        0.14410611454025       -0.00036583197113
C           -1.73557266868927       -0.33640653826345       -0.00044781218674
H           -0.52422918857040       -3.55991895421741       -0.00154315581467
H            1.68846241930617       -3.11192864497835       -0.00117702944176
H            5.63174824797121       -0.69614700226548        0.00005484076596
H            5.47517703880094        1.03744121582826        0.00068732323760
H            2.92477075652140        2.06769234206659        0.00145460138018
H           -3.93398825959764        2.16184022461291        0.00064894245353
H           -3.92697006801938       -0.46967557753686       -0.00069508722662
