29
 energy: -46.375784202419 gnorm: 0.000468840256 xtb: 6.6.1 (8d0f1dd)
N            4.75591110213659        1.63252786807411        0.04502739430029
C            3.84424353886916        0.92874404860627        0.01141800997485
C            2.77847472198248        0.03495442818595       -0.01399395473846
C            2.92677581503019       -1.37120583800857       -0.01708581626431
N            4.11104797577349       -2.03635267038503       -0.07110900093846
C            1.64798137227317       -1.92605352188020       -0.02395014185386
C            0.67646608537435       -0.91046715804109       -0.02433262088984
C           -0.67186135727810       -1.25164674138597       -0.02806734683245
C           -1.87520985516401       -0.57136750588761       -0.01986999054428
C           -3.08327891191204       -1.28921038187618       -0.01458853306141
C           -4.16180295167992       -0.40266147469889        0.00127084382784
N           -5.48370146479158       -0.73715899083072       -0.04706881742246
C           -3.64307209866660        0.90059256671956        0.00221469138889
C           -2.24556265144763        0.85911594267035       -0.00969733503859
C           -1.51991544538564        2.04639684914680       -0.00978440778747
C           -0.18158411299251        2.39723179657795       -0.01302227922474
C            1.01933595126158        1.69974411217419       -0.01645224257730
C            1.39516561214487        0.36590657474210       -0.01850459521759
H            4.11878342921677       -3.01717714297145        0.14858495135795
H            4.95145491267321       -1.51693178940822        0.12019943858036
H            1.43434221548593       -2.97985293445438       -0.02828021233672
H           -0.81409583817233       -2.33020485595524       -0.03611197451364
H           -3.16091070819064       -2.36157001148559       -0.02083783591463
H           -6.15239968772912       -0.02859199077823        0.20316984997386
H           -5.73335829244947       -1.68313081537881        0.18662679079873
H           -4.23309078378037        1.79960149879195        0.01117659958704
H           -2.17852452898238        2.91113547046184       -0.00580361019125
H           -0.03209996920039        3.47216795622730       -0.01233569754622
H            1.88469237950111        2.35849223554783       -0.01650220649605
