28
 energy: -52.229260165244 gnorm: 0.000284224333 xtb: 6.6.1 (8d0f1dd)
N            4.52534192621363        0.74634339357736        1.09626017026025
C            3.69393192689082        0.09150347762582        0.64950332487230
C            2.71190940192315       -0.79710157792304        0.19446134313306
C            2.94375951851118       -2.18713484015507        0.07395589807554
C            1.76931884918692       -2.79240377765901       -0.29461318216589
C            0.72375860615723       -1.83013244543493       -0.32874311996276
C           -0.57411387151475       -2.24616599385921       -0.49919964347607
C           -1.80489432075518       -1.64754038151323       -0.23415014862041
C           -2.99322347484746       -2.37877893873448       -0.16366661422251
C           -3.97635743694577       -1.50967248796314        0.33664417994389
N           -3.50363416805660       -0.29892573775551        0.55776341228703
C           -2.19043039662994       -0.29777161008633        0.19582869323626
C           -1.59306004106547        0.95170109563826        0.16209809435925
C           -2.49650210531556        1.96790403205791        0.59355462953259
N           -3.16417297552701        2.83031302231489        0.94786331145825
C           -0.33598327445582        1.45384036394037       -0.29147516274311
N           -0.34895146600358        2.76242631742538       -0.66016922794455
C            0.91370779253084        0.79733197640956       -0.31020789493112
C            1.98358062876005        1.67227528929691       -0.65193738114293
N            2.78679050800727        2.39856087260496       -1.03287647786562
C            1.35349219980115       -0.52171877571478       -0.07846308128199
H            3.89079832908150       -2.66292236403921        0.24896519487791
H            1.62462055447061       -3.84331000150787       -0.46267738766126
H           -0.66304808489094       -3.29837300495561       -0.75498876706939
H           -3.11984530529687       -3.41574962621016       -0.40762881140214
H           -5.00771499104100       -1.73628634264395        0.53647526391458
H            0.51342213725558        3.24973674863041       -0.83888571422765
H           -1.18781798784135        3.30556827993346       -0.54204852873331
