27
 energy: -46.930255177468 gnorm: 0.000719487844 xtb: 6.6.1 (8d0f1dd)
N            4.73381393674435       -1.63692391896505        0.02018204979169
C            3.82830471995659       -0.92542947985163        0.02067881638349
C            2.76637425418137       -0.02568503152091        0.01395073818659
C            2.91352566423803        1.37460741679418        0.00298672935750
N            4.08253984243141        2.04468386774123        0.03456125820629
C            1.62437355285889        1.93951824438980       -0.01044344028315
C            0.65987119156621        0.93705089752849       -0.00928214899308
C           -0.69741704275652        1.25902146759121       -0.01984656809760
C           -1.86394695114912        0.52905861107459       -0.02081930979263
N           -3.01599291850761        1.23722595065746       -0.02230645231767
C           -4.02978450120890        0.36612611875742       -0.01712667130278
N           -5.30952153523894        0.78471131112865       -0.05289161321358
C           -3.57856936549745       -0.97240621830877       -0.01295396825151
C           -2.19101852552104       -0.92806930260371       -0.01514882857960
N           -1.50345017210858       -2.06210459954260       -0.01370331931366
C           -0.24499072640616       -2.36338720866435       -0.00804856728824
C            0.98552809659337       -1.67256960413077        0.00497105181266
C            1.37818367652221       -0.35427920372564        0.00511481124464
H            4.09476456276368        3.04209585544670       -0.07928191070216
H            4.94711891573841        1.53759502546010       -0.04139443088085
H            1.41832431331616        2.99414382187083       -0.02024079249727
H           -0.89150576585184        2.32740479520329       -0.02632699489053
H           -5.48749524519943        1.76732898843761        0.05804473816020
H           -6.05376862045471        0.13138670037082        0.11041046952487
H           -4.18350193800916       -1.85667506818129       -0.00951046248291
H           -0.11009169500474       -3.44635182650028       -0.01142530190079
H            1.83064769170353       -2.35648994775722        0.01529987511997
