26
 energy: -47.997427496498 gnorm: 0.000481065398 xtb: 6.6.1 (8d0f1dd)
N            3.44737699886986       -3.06641857756499       -0.00106787379955
C            2.48067383243114       -2.44971408800126       -0.00019489961705
C            1.25434918016954       -1.72325997181190        0.00089163420721
C            0.16269787765737       -2.58351381801643        0.00019001985250
C           -1.21790677356296       -2.42707206799615        0.00076163381816
C           -2.09130210700027       -1.35579059029078        0.00190198513626
C           -3.48972003872914       -1.55227396745717        0.00220613388741
C           -4.07553565166609       -0.29950222728170        0.00321320856695
N           -3.16613496048517        0.68315962545840        0.00358219139650
C           -1.95231441185183        0.12032231307876        0.00282934323588
C           -0.86397257538691        0.99596764898414        0.00327669376688
C           -1.25608604053622        2.36972684706357        0.00529703250220
N           -1.56031845278946        3.47342697678403        0.00353302912173
C            0.52330410556749        0.83659149788360        0.00319355071877
N            1.23767419177176        1.96908471845488        0.00428633278095
C            2.53917577390609        1.64326740146078        0.00412334759235
N            3.48597014182770        2.58806171995136        0.00530469823568
C            2.71354210091228        0.24220376465275        0.00286878726380
C            1.44284073207342       -0.32547126507876        0.00228186110781
H            0.46641306889816       -3.62695692133318       -0.00097756203180
H           -1.74253501253751       -3.37858823453710        0.00017078225817
H           -3.99180905466045       -2.50030497694735        0.00175894124404
H           -5.12311222463431       -0.05879843351805        0.00372581232317
H            4.46016859809332        2.34816170885994        0.00427703353800
H            3.19877866325550        3.55095180749017        0.00550643456807
H            3.65273148410663       -0.27538460388761        0.00248450782588
