32
 energy: -59.920421993383 gnorm: 0.000507384480 xtb: 6.6.1 (8d0f1dd)
N            5.12229983303873        0.64717603565400       -1.24047083408162
C            4.29617584712702       -0.01317942342153       -0.79140538634764
C            3.30515850885011       -0.88419966643679       -0.32574022113880
C            3.45993460891991       -2.29400237503661       -0.29696618009916
C            2.29227643764848       -2.85114012116794        0.15426617688362
C            1.31586665187014       -1.83246306394235        0.33214997511418
C            0.02399368738514       -2.15962045212943        0.66470938980917
C           -1.20659699996284       -1.51213629438987        0.52646376781835
C           -2.38252623037313       -2.25117763532982        0.63581636450251
C           -3.46991005642491       -1.49897961328462        0.15168827707515
N           -4.74988103163843       -1.89674044124205        0.07248968951286
C           -2.97462498826403       -0.24073354497914       -0.25470802770453
C           -3.85127241510672        0.71125828070310       -0.77858923671610
N           -4.70405555226255        1.35919201777437       -1.19876086651224
C           -1.57960415649522       -0.17464212309621        0.03384092281891
C           -0.88337990807544        1.02362970389739        0.00215313078855
C           -1.59282150404464        2.13911042212421       -0.51981902121956
N           -2.06154759144853        3.08424015256816       -0.97252826348761
C            0.40158494991956        1.43670520757306        0.50053886553703
N            0.42889995407168        2.70429317639389        0.99883843287323
C            1.62774900102081        0.75726714297716        0.43229647609046
C            2.74317548912756        1.55924351742515        0.79677516847395
N            3.60085369662840        2.21557808858080        1.18622920184162
C            1.99690826486907       -0.55689752797705        0.07224811195998
H            4.35661980717607       -2.81199310404381       -0.58310731742120
H            2.09821214663177       -3.89958593499602        0.28402065190387
H           -0.09214900503950       -3.20286131665253        0.94508074247364
H           -2.44578454705974       -3.26584271873380        0.98337223478032
H           -5.44277008775508       -1.27231660865720       -0.30381865306171
H           -5.03293987541903       -2.79176248984977        0.42758381327246
H            1.31557629327032        3.15362485562953        1.16340706948000
H           -0.38183871958502        3.29436593426603        0.91193435458066
