25
 energy: -48.279261857100 gnorm: 0.000403935394 xtb: 6.6.1 (8d0f1dd)
N           -4.37851319168481       -2.16473810719929       -0.00655512470953
C           -3.32901712782984       -1.70585040859947       -0.00468711744654
C           -1.99188043933809       -1.21155990117367       -0.00369945089857
C           -1.03095097373036       -2.21460910244472       -0.00303450033863
C            0.35580382354890       -2.23867269296700       -0.00166516255917
C            1.38145054356134       -1.30483229546802       -0.00012514459921
N            2.62004768432880       -1.82362248168767        0.00104121007513
C            3.49825643603063       -0.81151957166196        0.00253717376713
N            4.81631809658844       -1.02939452734967        0.00387721092593
C            2.83937773112328        0.44298775265443        0.00238807729335
C            1.47789462190242        0.17954230250654        0.00070634384427
C            0.51394535493436        1.20407174927469        0.00000722293669
C            1.05935388838974        2.52157837661938        0.00045202525262
N            1.54028960005398        3.56152870950553        0.00301036175798
C           -0.87271067894777        1.21095848518512       -0.00175500476226
N           -1.49077109802316        2.41773655151969       -0.00219601604758
C           -2.78205628368037        2.15269905471144       -0.00381394339542
N           -3.10588941157195        0.85375912139930       -0.00448035089158
C           -1.94483058214116        0.19322128295450       -0.00332849662727
H           -1.47246458488796       -3.20693651185237       -0.00380252578417
H            0.77486231589390       -3.23963400018012       -0.00167473868076
H            5.15108549700158       -1.97682335645918        0.00397455853403
H            5.46600341677062       -0.26424288795739        0.00525922592030
H            3.31232064987199        1.40515833198814        0.00340434981627
H           -3.52923222796451        2.92349137328176       -0.00451680478303
