29
 energy: -51.180355396772 gnorm: 0.000706676000 xtb: 6.6.1 (8d0f1dd)
N            4.13887510619523       -2.69040085338523        0.00988771526438
C            3.15001309820150       -2.10844589069780        0.00928490954559
C            1.88738782666573       -1.44965194928329        0.00524495573705
C            0.85172713171481       -2.38647133390757        0.00052266501475
C           -0.52954280625054       -2.33432088924494       -0.00529506297127
C           -1.48450594717498       -1.32697693524598       -0.00890232301593
N           -2.77199971093762       -1.74157462869858       -0.01176928354817
C           -3.55344706511252       -0.66460533014832       -0.01317546306363
N           -4.89343175594855       -0.74674263628852       -0.04363237516493
C           -2.78269240150802        0.53484319986339       -0.00999278581385
C           -3.30194196049159        1.82268264144253       -0.00239860387681
N           -3.76364956541265        2.87776382518168        0.00861671287719
C           -1.42739322877080        0.13660023228438       -0.00736019203836
C           -0.40451950572584        1.07901791406841       -0.00362967026819
C            0.97492755941507        1.04164874610610        0.00094512165203
C            1.69622844002315        2.24602693500990        0.00062111709619
C            3.06687435296598        1.97743020552593        0.00418976045797
N            4.06780267463445        2.88318950792518        0.04094690735019
C            3.23017698505426        0.57686714165547        0.00864530079943
C            1.98667588797827       -0.04616616458951        0.00561220688347
H            1.23041857282959       -3.40530745367183        0.00181146660297
H           -1.00882719253597       -3.30735857221200       -0.00760415961140
H           -5.45323998991138        0.08113353936707        0.05575120741466
H           -5.32015696114914       -1.65240351910527        0.03365661869639
H           -0.79011810087822        2.09676332419566       -0.00436857683962
H            1.25198794992435        3.22419844875154       -0.00241292330380
H            3.86317329399422        3.85747071744668       -0.09122000199187
H            5.01587504841348        2.57593799900233       -0.08383202733977
H            4.17972726569775        0.07407065385259        0.01302909565532
