26
 energy: -52.794390544585 gnorm: 0.000649357275 xtb: 6.6.1 (8d0f1dd)
N           -2.35662219471978        3.65785997914547        0.49898759024388
C           -2.25885896717646        2.53249751442069        0.29087460877497
C           -2.26149980703896        1.16360863556746        0.00225735002633
C           -3.38012421222942        0.52859932607671       -0.61313722712399
C           -3.10958263687040       -0.79675640779045       -0.82008012037369
C           -1.82908422581029       -1.08630711114989       -0.27280911140808
N           -1.49044937056210       -2.28686420929750        0.05640437369651
C           -0.37811933125290       -2.79936404257667        0.56617223269395
N           -0.51282457882911       -3.73648239626857        1.51891332825712
N            0.81483450209490       -2.63619726211718        0.03905788806454
C            1.45254350280674       -1.59921717586323       -0.39961205598208
N            2.62585402325809       -1.76591197781818       -1.04426857873935
C            3.23714715633632       -0.60162059149910       -1.04736868960759
C            2.49020747788572        0.42573996818086       -0.41122345920287
C            2.92241420217788        1.75224697504503       -0.33375587247164
N            3.34637654971728        2.81932301477471       -0.32117097633055
C            1.26163875128461       -0.15717392851063       -0.04601263702638
C            0.11709525785542        0.54984174261446        0.35336948500062
C            0.37586152004775        1.84006943230135        0.89376268790240
N            0.61015343646608        2.80989240519650        1.45673788241334
C           -1.22672771015615        0.22184603741911        0.14295469202876
H           -4.28663405908448        1.04571784374600       -0.87078296582508
H           -3.76736094957383       -1.53877264380855       -1.22741015939278
H           -1.43343957910545       -4.04426079839198        1.78066456151149
H            0.28624803410206       -4.29874478632327        1.75757842830005
H            4.20449974279421       -0.48373882858266       -1.50156158926934
