27
 energy: -47.716349656644 gnorm: 0.000569965919 xtb: 6.6.1 (8d0f1dd)
N            4.40963154427742        0.05689687966100       -1.01468908952311
C            3.41964363119193        0.47897304908227       -0.61201253816864
C            2.23209865960436        1.10188791437012       -0.21073582127505
C            2.12496546579022        2.51109714927595       -0.09687841624182
C            0.82611461552609        2.82180699950028        0.19793553766312
C            0.03503665582864        1.63646587720348        0.20349556822844
C           -1.32496475110931        1.74333229754331        0.35046432675530
C           -2.39306604059208        0.86885793212772        0.14202262307253
C           -3.72014170653772        1.29638016730778        0.14180281250374
C           -4.50036371918298        0.19437509730097       -0.25069602704768
N           -3.77303282960131       -0.87773391253670       -0.47945409696432
C           -2.46681707447088       -0.54838459968967       -0.23435758422644
C           -1.58348775995710       -1.59294703484193       -0.29549543277163
C           -0.22035208597485       -1.80665510918816        0.00300223689145
N            0.10711972148622       -3.12787925217810        0.09734730988512
C            0.83967696325008       -0.88459894741886        0.13605621887435
C            2.06515920848486       -1.50718417912323        0.49969273130581
N            2.98287381482235       -2.05960522869603        0.91467927780936
C            0.96637880355306        0.51465119917815       -0.00960933732025
H            2.94333017229527        3.19439892265789       -0.22963275277947
H            0.42796726917412        3.80864746083674        0.34484832458622
H           -1.65385562933211        2.75442442850918        0.57633084980497
H           -4.07572208372169        2.28214811336141        0.37332764988781
H           -5.56919574141770        0.16591449808152       -0.36684354619766
H           -2.10405556141593       -2.50856713319262       -0.56352814736043
H           -0.61329065531309       -3.82559629396130        0.06477177460265
H            1.04764777454108       -3.41507398517440        0.30536877220437
