23
 energy: -40.031195978953 gnorm: 0.000685631985 xtb: 6.6.1 (8d0f1dd)
N           -4.64736407683907        1.26727598073091        0.00206532674553
C           -3.75315423655457        0.54565773102160        0.00493145861341
C           -2.66585377228691       -0.33413629436070        0.00237956901927
C           -2.75873573995834       -1.73422888612182        0.00208412377385
C           -1.47930567794376       -2.25303888918147        0.00095068638198
C           -0.53130399241212       -1.20517775012683        0.00029345173794
C            0.82072866530076       -1.48761281833947       -0.00067327868520
C            1.96980076868444       -0.70770397471093       -0.00129309244069
C            3.24860970232136       -1.27475299401244       -0.00187956491237
C            4.16492236470118       -0.21723179449906       -0.00180534446606
N            3.57315531332321        0.96535343071241       -0.00125076476731
C            2.23667480443918        0.76641097519437       -0.00101434908823
N            1.51017942716299        1.84585482347570       -0.00085701932558
C            0.23578062087687        2.12586946852033       -0.00046921167174
C           -0.95892521507493        1.39602306370385        0.00060141821246
C           -1.29692011804261        0.05275209457716        0.00095313035924
H           -3.67719245609396       -2.29213646040664        0.00302606434887
H           -1.22788197745640       -3.29788292917667        0.00076765115767
H            1.03181255618199       -2.55493201723754       -0.00079760900579
H            3.48145770686566       -2.32319035862732       -0.00229600896892
H            5.23817995198865       -0.28824762713154       -0.00215789073461
H            0.07882059185518        3.20401437760731       -0.00091993446429
H           -1.83410234933881        2.04097258158880        0.00120688698058
