30
 energy: -50.881991402977 gnorm: 0.000899629356 xtb: 6.6.1 (8d0f1dd)
N           -4.72406811226123       -0.19016785965062       -1.01042093549574
C           -3.72977290078561       -0.57472928987395       -0.57938935202617
C           -2.53075788617659       -1.14962989709390       -0.14895927621247
C           -2.36588892550004       -2.55167906376919       -0.03070514698500
C           -1.06076409615334       -2.80690659029055        0.29324839341365
C           -0.32290356565271       -1.58989539655068        0.31336757381543
C            1.04281832575849       -1.63560326791237        0.47397402034475
C            2.08521811582353       -0.73983632206415        0.24645502024613
C            3.40494947149208       -1.17909917751173        0.24377741481749
C            4.25775838468652       -0.13477385897393       -0.18409010865048
N            5.61218290530475       -0.21475916554042       -0.27053375579431
C            3.46997157653079        0.98123639346535       -0.42730225377989
C            2.11639940503260        0.68145916620429       -0.14402953871810
C            1.17945161749245        1.68660458294826       -0.15516493434834
C           -0.18218513515690        1.83727954962568        0.18009693207539
N           -0.54240690708801        3.14216386768171        0.39929390397273
C           -1.21838006895809        0.88594448301786        0.26166550532156
C           -2.47331416558160        1.46098771732080        0.59598197308476
N           -3.43035372958221        1.97674558041401        0.96864959996713
C           -1.29308321224558       -0.51293780495668        0.08433334179412
H           -3.15075907681613       -3.27021703433648       -0.18036114766792
H           -0.62361696052049       -3.77659910382326        0.44552828075784
H            1.40403635441011       -2.63206505564930        0.71575697710340
H            3.72924880951133       -2.17268388140043        0.49559577478473
H            6.10086187214203        0.50413278768474       -0.77484792822302
H            6.03730551556677       -1.12544805574239       -0.25416390878717
H            3.82960215379723        1.94178230514450       -0.74745182561903
H            1.62803468964941        2.64504323585795       -0.40893849349873
H           -1.51088059382454        3.39319218330138        0.49488230923716
H            0.12201705550308        3.87565555657545        0.23563125956850
