26
 energy: -48.787841481501 gnorm: 0.000605728738 xtb: 6.6.1 (8d0f1dd)
N           -4.97070646105592       -0.96277055616069        0.17423317520922
C           -3.83662258124171       -0.82433661578211        0.09934518529954
C           -2.41285591468253       -0.76441221465410       -0.00313957847234
C           -1.83239274764453       -2.02179573459901       -0.17737570361993
C           -0.52800537921131       -2.47339508164648       -0.22066383149067
C            0.74169055394734       -1.91386406550686       -0.09827101340162
C            1.84642226426230       -2.78608068101087       -0.04420436152699
C            3.01929529771110       -2.06718063329675        0.10011710670180
C            2.70336578555431       -0.70328901766094        0.09164354792653
C            3.68911089139208        0.26835164115363        0.31414794961671
N            4.57200831576139        0.96083568992383        0.55776539219154
C            1.28884994795497       -0.54706926723745       -0.03657101114487
C            0.70744665132390        0.71239681988909       -0.14358393077067
C            1.62044922541204        1.77858805687287       -0.41142601916017
N            2.28013097242808        2.66016638151116       -0.72744331986461
C           -0.61470733327734        1.18685513118210       -0.05351814996069
C           -0.90937848039910        2.56105709670405        0.00019571878447
C           -2.28809762257710        2.67561864168172        0.18261157906961
N           -2.88083131668428        1.49067758070460        0.21657021311969
C           -1.93128057727103        0.54289051999337        0.07337131447757
H           -2.57089260672404       -2.81273135152116       -0.25951147326695
H           -0.46959510710868       -3.55258136480655       -0.32911261762183
H            1.77610008903357       -3.85740523345126       -0.08679743788499
H            4.01061298849262       -2.46712516767203        0.20557041546166
H           -0.20880244597543        3.37049102980003       -0.05718857880834
H           -2.86336557432061        3.57679991368956        0.28606912443632
