25
 energy: -44.280740428624 gnorm: 0.000843301419 xtb: 6.6.1 (8d0f1dd)
N           -4.65030719049894       -1.91774547938639        0.00571394507143
C           -3.92366895648053       -1.02771782607838        0.00294497812801
C           -3.04245623594367        0.05908807838163        0.00355206585520
C           -3.43173968668507        1.40962969961342        0.00451456634927
C           -2.29204651294842        2.18314170239589        0.00380161057209
C           -1.14095381511369        1.35618202404205        0.00248790721520
C            0.11191573227641        1.93426734476354        0.00142206732529
C            1.41605706478358        1.45259046914577       -0.00004202170336
C            2.52077418131652        2.32156140362107       -0.00099854880201
C            3.66527423932314        1.52533073225856       -0.00232425644011
N            3.36771365134115        0.23205792911279       -0.00223995741294
C            2.02329687870001        0.11465332807173       -0.00095369923100
C            1.53261301064483       -1.19314085641362       -0.00069335722220
C            2.58148685363203       -2.16298195787157       -0.00142676536912
N            3.36232025107048       -3.00066882833487       -0.00290902041872
C            0.26450348219953       -1.77806385515438        0.00036043796791
C           -1.02972962013273       -1.28772555072615        0.00158996863869
C           -1.62515331518420       -0.03134140442660        0.00249748575969
H           -4.44767068701555        1.75922718995711        0.00541059170065
H           -2.26446893623500        3.25741839784579        0.00407052015144
H            0.07352545051410        3.02109788614635        0.00172812389037
H            2.48389958374564        3.39396201601314       -0.00074983260829
H            4.69099558136547        1.84553972593498       -0.00331296442870
H            0.31138115332918       -2.86277199085622        0.00013768643188
H           -1.77354522390432       -2.08114070005562        0.00200937317934
