24
 energy: -39.758741976676 gnorm: 0.000315002760 xtb: 6.6.1 (8d0f1dd)
N            4.64469077406171       -1.25614858440197       -0.01924110855190
C            3.72769438596273       -0.56456393139427       -0.01557140481829
C            2.63694145880174        0.31035745359336       -0.01124577061953
C            2.71644612456768        1.70832370959439       -0.00911011267503
C            1.43055555314982        2.21924263040335       -0.00463251048384
C            0.48521085288151        1.17216819968737       -0.00377353076127
C           -0.87052714847882        1.45216220753567        0.00062482554041
C           -2.02175567801375        0.67951988435525        0.00265812526130
C           -3.28676171435884        1.28850260159793        0.00744731500293
C           -4.28212507782144        0.31185674772146        0.00868032123389
C           -3.67436604373719       -0.93001820054842        0.00472307032014
C           -2.26706439177799       -0.77519619236296        0.00085067211446
C           -1.44894094410614       -1.88783531516547       -0.00353768549359
C           -0.06394882601582       -2.11064148219729       -0.00800265725860
N            1.00546851053774       -1.36656166446534       -0.00971290275933
C            1.26543818509821       -0.08535114618311       -0.00816152797193
H            3.62907485774631        2.27616913556178       -0.01071985178670
H            1.17680067419403        3.26464604352100       -0.00211341180227
H           -1.08209854277630        2.51922829611663        0.00313473465560
H           -3.45251373212718        2.35080397713676        0.00978886730154
H           -5.34078726818524        0.49698790641491        0.01213035296578
H           -4.17825853654864       -1.87944456117653        0.00454857646929
H           -2.01122078819967       -2.81732957476328       -0.00351491841910
H            0.20469761894553       -3.16677461938122       -0.01070951036395
