28
 energy: -51.454337954966 gnorm: 0.000654206480 xtb: 6.6.1 (8d0f1dd)
N           -4.49379662756935        2.13729261118135       -1.15197997010009
C           -3.79113774237804        1.31830439068197       -0.75285524119471
C           -3.00064465143277        0.26561595451429       -0.29698755123230
C           -3.43672719565141       -1.08199069289566       -0.22213270410798
N           -4.64411638707650       -1.51994633879689       -0.61965493946486
C           -2.39434720167446       -1.86250101114178        0.30430864227762
C           -1.27109965496732       -1.06363319642061        0.52245158281438
C           -0.00195612046240       -1.59548168124169        0.71062449209826
C            1.26832537546934       -1.06358253770153        0.53034228807852
C            2.39287711971592       -1.86248146665063        0.31914683150616
C            3.43869658100058       -1.08191337292772       -0.20038389955716
N            4.64857109386932       -1.51987805826671       -0.59022926397511
C            3.00323895823547        0.26576212122734       -0.27757359016958
C            3.79687290288463        1.31846907583112       -0.72745850459632
N            4.50240897240510        2.13748431293036       -1.12126803397710
C            1.69867778772117        0.34544286443351        0.25718839098269
N            1.17863732050036        1.46435252927418        0.66251212064848
C           -0.00314716821973        1.82804003009965        1.07358659992698
N           -1.18218669666431        1.46427298259733        0.65489527823103
C           -1.69962227195053        0.34536772653511        0.24633448225186
H           -5.32531556539385       -0.85883721307149       -0.95139647671315
H           -4.92898210463853       -2.46538055132815       -0.43738347893137
H           -2.43920686386495       -2.92614946782601        0.45197226993290
H           -0.00222452052734       -2.67775187600383        0.80852453374650
H            2.43670080820157       -2.92618928766090        0.46687586135832
H            5.33198966563701       -0.85869018676065       -0.91719654871664
H            4.93219450176906       -2.46534909322745       -0.40624845623353
H           -0.00528352553511        2.70732686911829        1.71368430371545
