30
 energy: -55.689277693750 gnorm: 0.000753652099 xtb: 6.6.1 (8d0f1dd)
N           -2.88055429978773       -4.02354083426416       -0.22331580844067
C           -2.07956757502636       -3.20617620135700       -0.14246281608388
C           -1.02610435769941       -2.25084074374668       -0.05170061679129
C            0.20652350145001       -2.92207271236890        0.01556127806825
C            1.52238070116732       -2.54620713279080        0.11649866324535
C            2.20198491909001       -1.32516196531098        0.11596446660333
C            3.59023354436479       -1.26738050995565        0.18970623624485
C            3.95197853234761        0.09282295622454        0.08916478056034
N            5.18245875742874        0.62283030704867        0.10724023150641
N            2.87018415260256        0.87388089989400       -0.04097546648143
C            1.78326600142849        0.08539530113680       -0.01676234787005
C            0.56071500211590        0.76114629664346       -0.09050583979164
C            0.79955469167810        2.15542562075483       -0.28863205704008
N            1.01209855170296        3.25935727025851       -0.51007037591553
C           -0.78738617524474        0.38888724155431       -0.00564255055038
C           -1.80671042529248        1.35601716422833        0.05386637341426
C           -1.77114971302947        2.74890128896274        0.15375712090198
N           -1.96104439968035        3.87695170479210        0.27964046820600
C           -3.08079379504412        0.70431747627463        0.07623243484109
N           -4.25975397587215        1.34088965408621        0.14515048059219
C           -2.85313355378604       -0.66548636805708        0.01922792917989
C           -1.47288196152029       -0.92443347255545       -0.01135976372383
H            0.07322730934014       -4.00056127987724       -0.00013878366995
H            2.20555000847671       -3.38680548296942        0.19099663639406
H            4.26253554180947       -2.09708340066246        0.29114929133905
H            5.27115085447583        1.62012363131890        0.02592496598308
H            5.99611374424332        0.04920933577478        0.22795055553140
H           -5.11997676119278        0.82376314939410        0.15957572953660
H           -4.28124645549627        2.34569176531741        0.18927911228983
H           -3.62187542614996       -1.41489590874882        0.01711132482080
