26
 energy: -48.798912248854 gnorm: 0.000448156886 xtb: 6.6.1 (8d0f1dd)
N            3.99409358836761       -2.35323936803274        0.00226347090685
C            3.57692107156396       -1.28358382304613        0.00312919517245
C            3.08190985919936        0.02617424476840        0.00230449824537
C            3.87849888291298        1.18766624567007        0.00255476468191
C            3.04203792206163        2.28108205939617        0.00193171072410
C            1.68677462929376        1.86059593923773        0.00124653739441
C            0.67534354332237        2.80345095132619        0.00054547608918
C           -0.72689962786979        2.76355153824598       -0.00023369185119
N           -1.63575615396859        1.83039572221648       -0.00050779049833
C           -1.65283293340309        0.52331558113116       -0.00025277293191
C           -2.93185655280927       -0.11707626601401       -0.00088754349677
C           -4.16153892278868        0.55542844935722       -0.00214787889915
N           -5.18003649334288        1.08340386616378       -0.00127417204794
C           -2.76581043963910       -1.49983230465595       -0.00059698380691
C           -1.39461091472285       -1.77532574651822        0.00003678660136
C           -0.83801049855564       -3.06161839693602       -0.00004097822311
N           -0.38293199472992       -4.11539030699230        0.00155296087230
C           -0.65159428838251       -0.56134716588972        0.00034558503813
C            0.73262742864909       -0.59141194820928        0.00102399374268
C            1.71200553137984        0.39053872729474        0.00142390109641
H            4.95278975842175        1.19758772590687        0.00321643940843
H            3.35456207924527        3.30917133911881        0.00199189037578
H            1.05530123666056        3.82056132385282        0.00059444014646
H           -1.18998232453373        3.74940920028843       -0.00068481951821
H           -3.55267483520175       -2.23184162720105       -0.00104484809847
H            1.14118268516963       -1.60094647817944        0.00133996007620
