27
 energy: -52.524762090379 gnorm: 0.000542031696 xtb: 6.6.1 (8d0f1dd)
N            5.36319363006246       -0.80984202450283        1.09185587678244
C            4.47391836503424       -0.17525533035811        0.73785260333623
C            3.40067139690389        0.61337653888840        0.31289526202945
C            3.41694959808858        2.00889539424775        0.14842382450036
C            2.17700634812619        2.43340720719639       -0.29321487363163
C            1.29662974885009        1.33340036056897       -0.36357104410399
C           -0.06702079666119        1.49090245598349       -0.40665955715364
C           -1.13807916958184        0.61880582403366       -0.18201215798516
C           -2.44739402768480        1.10713450866067       -0.02449876966611
C           -2.89279468528710        2.42147954687740       -0.12065652241111
N           -3.29258954546163        3.49741535055112       -0.19578518186884
C           -3.27156968519237       -0.02319284871124        0.29269563807583
N           -4.58121270536088       -0.00496401550944        0.54428966810711
N           -2.55561134322762       -1.14389690295014        0.30963739485401
C           -1.27910888099142       -0.83543309670420        0.01260613631538
C           -0.41638771366106       -1.90711484203638       -0.23134380129421
C           -1.05341777877408       -3.17619982565636       -0.21018549026930
N           -1.53240741232327       -4.21709012564645       -0.22453410907865
C            0.96027892974887       -1.96337542888757       -0.52940721781160
N            1.92369591386115       -1.13997644709693       -0.27803246080880
C            2.12384309553883        0.12284032156710       -0.07255390587573
H            4.27106662282503        2.63419412028975        0.33590878030561
H            1.90284449987260        3.44844767068820       -0.51410702699678
H           -0.38549753234362        2.52662312096858       -0.50264654543389
H           -5.10509341669904        0.85117632812920        0.49583090207881
H           -5.04372732257309       -0.87411444559512        0.74750955234665
H            1.31151012860975       -2.92370878129904       -0.90266547734218
