27
 energy: -46.929889930959 gnorm: 0.000517908556 xtb: 6.6.1 (8d0f1dd)
N            4.60845407709013       -1.69594402729765       -0.66866368762115
C            3.73953552156970       -0.97641899992384       -0.43685711441634
C            2.72566038358726       -0.06168578015383       -0.16805617331481
C            2.93295091309651        1.34055742516206       -0.05932442136796
N            4.13123228393228        1.95398255829584       -0.16640635005436
C            1.70259131431629        1.92982033386381        0.21966186555604
C            0.69538673434523        0.95019301284252        0.26835051613987
C           -0.62689759853634        1.32247740739495        0.43921561653378
C           -1.84300985745454        0.65988789159588        0.31507708310029
C           -3.06359927465657        1.31643085532867        0.21788885829057
C           -3.99968364613156        0.36107155431759       -0.24311206435148
N           -5.28540553489975        0.58757926280910       -0.56809595711524
N           -3.46116077923067       -0.85562685586933       -0.38025547209840
C           -2.17660056551350       -0.77014915077034        0.00421940858568
N           -1.52514217547459       -1.87065919503668        0.20809377743959
C           -0.30356583648506       -2.25019233667589        0.43900582677837
C            0.94083509164454       -1.66626402248949        0.19800640823569
C            1.36067076587878       -0.35401069596683        0.05029182055721
H            4.17754417626670        2.95647878131683       -0.19741732380758
H            4.92461330706015        1.42624775444105       -0.48666633590600
H            1.53933802972388        2.98327463257819        0.35573172831380
H           -0.74732725267935        2.39709896361522        0.55801694744617
H           -3.26332764655033        2.35231611732245        0.41595990984627
H           -5.85146300914389       -0.20702753469113       -0.80901134958115
H           -5.73141688258807        1.44690180794391       -0.30229098716878
H           -0.26063222601420       -3.28599619847866        0.77401648082196
H            1.75574944833986       -2.38353332247277        0.16144733525939
