29
 energy: -50.377840394627 gnorm: 0.000715298575 xtb: 6.6.1 (8d0f1dd)
N           -4.61591098877318       -1.35598200982277        0.96515310716970
C           -3.75028111055931       -0.65833645730081        0.65959622089382
C           -2.72780994060130        0.20763973191948        0.29368369019674
C           -2.88348808828629        1.57470813031267        0.03376092086542
N           -4.04338911460489        2.26560776295258        0.07330027992553
C           -1.61930924347858        2.09548726642042       -0.32198321044022
C           -0.65638970889819        1.09667467808800       -0.28452157826562
C            0.69636835521535        1.40405731906990       -0.46866983589332
C            1.86519663572737        0.70780848640148       -0.28406554394793
N            3.01659706587061        1.41868987541485       -0.26272250005654
C            3.97989724623100        0.59471095523842        0.16136008196278
N            5.25339916588191        1.02484814448140        0.29158397834504
C            3.51327172133267       -0.72140723005738        0.37521285512392
C            2.16637430276213       -0.71669860382764        0.05141413912049
N            1.47358295992526       -1.83265628108627       -0.07811572218350
C            0.22802025208409       -2.16531602676531       -0.20257211465271
N            0.04987091421931       -3.48391419611910       -0.52061910180805
C           -0.99232839933121       -1.47014822303280        0.08622548597628
C           -1.35548594867810       -0.15789004619711        0.06910094706243
H           -4.02885417425123        3.26652258940470       -0.00450267201148
H           -4.86297899316998        1.82653232200216        0.45538136961277
H           -1.43139333406715        3.12675871941337       -0.55936801026480
H            0.87670633044577        2.45491546626692       -0.67254145790405
H            5.90622369892714        0.47507345319042        0.82107770349117
H            5.41424235236106        2.01395274373034        0.21123020360532
H            4.09667903846273       -1.56504073798912        0.68507232379757
H           -0.85819880763945       -3.83881755566842       -0.75758323550647
H            0.86477654868141       -4.01097353848915       -0.78012676342227
H           -1.80940252948535       -2.14988840525298        0.31400235630876
