27
 energy: -46.932921417180 gnorm: 0.000817448910 xtb: 6.6.1 (8d0f1dd)
N           -4.63301121531661        0.68263069786728        1.63263325217807
C           -3.79527607893906        0.07424355184641        1.13048981809745
C           -2.78549005711453       -0.67644721713226        0.53204421911504
C           -2.85063147017078       -2.03729147287017        0.18980036254104
C           -1.67073358189904       -2.41747491066762       -0.42458517558564
C           -0.77817814254898       -1.32678267132428       -0.45503351523811
C            0.57219037291925       -1.47777652183099       -0.69617520715326
C            1.66927482030146       -0.67476924512884       -0.38577657751164
C            2.95381421235741       -1.18914789914017       -0.28546779442948
C            3.79763831257215       -0.24158396636014        0.35006804909785
N            5.11336198862240       -0.42798215807508        0.60090606615793
C            3.05598601885594        0.90459681317118        0.62326838976410
C            1.75593674273688        0.73387789802452        0.12275017357349
N            0.94977628675895        1.74463942957181       -0.02869353940682
C           -0.30919701269279        1.85272431991533       -0.40979361617500
N           -0.62149182388504        2.99729461452716       -1.07548054399283
N           -1.33934234986676        1.11485344101422       -0.05092290636817
C           -1.54216820402949       -0.16179638713470        0.07259102156656
H           -3.69684718643193       -2.67311619901052        0.38131692443307
H           -1.43592010591893       -3.40787754600987       -0.76983523693537
H            0.85027572923684       -2.47938077465918       -1.01403605649570
H            3.25649216233567       -2.17821857320882       -0.57941373645937
H            5.59974471346063        0.22269033949085        1.19115523419265
H            5.52161155730500       -1.33349438473425        0.45595573265522
H            3.42268108777263        1.80970213702817        1.06626410725062
H            0.07184514763507        3.72547414757315       -1.09418546961739
H           -1.59209648605856        3.26014037405492       -1.10659228695662
