29
 energy: -55.976192164645 gnorm: 0.000723033430 xtb: 6.6.1 (8d0f1dd)
N           -4.81848122800308       -0.84049359313757        1.68294446922439
C           -3.83449554895481       -1.02380439556569        1.11794227378245
C           -2.64338271383586       -1.36127393108549        0.46979390992330
C           -2.33789426142673       -2.66007014608721        0.04661994587571
C           -1.07409251069582       -2.66841478685821       -0.52235271434422
C           -0.50314039142516       -1.38563705391586       -0.44227876010332
C            0.85524935479762       -1.22166957132105       -0.65823096392353
C            1.73889679279020       -0.21355846882296       -0.30104979551079
C            3.12291992747189       -0.39158873831864       -0.11296006904833
C            3.90814862983349       -1.49314803463444       -0.42435173212763
N            4.58504034850569       -2.39055410898545       -0.67323377925341
C            3.58115669054717        0.79326856383658        0.55236441636847
N            4.82298119628918        1.01163552012467        0.98961760552362
N            2.60897924694509        1.69827999651441        0.69626799890187
C            1.50235036013175        1.17622578069426        0.15237091143474
N            0.49307381549650        1.94168751380411       -0.13629984667847
C           -0.75503659848283        1.85754268974192       -0.45272442151262
N           -1.25850006505732        2.86540182972717       -1.19647771148872
C           -1.70410850061755        0.87203937349075        0.04465991891481
C           -2.93102280145181        1.47296701247606        0.40658342075289
N           -3.88060558167807        2.07752614390160        0.63476181232179
C           -1.56457333543442       -0.49829345105718        0.10816346112471
H           -2.98815307630076       -3.50798295800484        0.16247869724512
H           -0.56508404758378       -3.53587759266429       -0.89906649309510
H            1.34923351810704       -2.13008796502113       -0.99368355038994
H            5.02603304269572        1.87748282324382        1.45747189153681
H            5.54818007099718        0.33254893320540        0.83890258364557
H           -2.25388947726285        2.99060920043049       -1.27875879567317
H           -0.65300893959763        3.64232302928961       -1.40548778642902
