27
 energy: -52.517932041845 gnorm: 0.000942250396 xtb: 6.6.1 (8d0f1dd)
N            2.15495348854210       -4.14856164041258        0.05368821021451
C            1.42045935426439       -3.26972348913905        0.03129663487935
C            0.42967233385944       -2.24185054831333        0.00623772485550
C           -0.87004051440259       -2.76579826006605       -0.01842737797898
C           -2.12996729782849       -2.21732047944555       -0.05877836273137
C           -2.64142921121816       -0.91789430715751       -0.06174647272351
C           -4.01724506170304       -0.68244035430823       -0.09621961605942
C           -4.20105552181676        0.70566227201290       -0.05959782496610
N           -3.05369516503620        1.35636492779693       -0.00324225202045
C           -2.05359887132782        0.44025424647541       -0.00785744015011
C           -0.77365986799604        0.97223128708198        0.02562688493308
C           -0.81457707713096        2.39895081233769        0.09864783346511
N           -0.83419548731232        3.54097422486511        0.17865959762583
C            0.52026154515639        0.41582241978876       -0.00223240849802
C            1.68668135727060        1.19358813091454       -0.01829212117908
C            1.92739624763976        2.56751056369753       -0.04433072090713
N            2.31697216893746        3.64857952580354       -0.08064943790132
C            2.79244569469429        0.27161255614507       -0.02831171730278
N            4.08388497509508        0.59748092566075       -0.04957343508692
N            2.36216422069087       -0.98275411248350       -0.01294841373249
C            1.01334294867926       -0.97289037968401       -0.00394360578064
H           -0.86746429553142       -3.85154731307759       -0.01326948755618
H           -2.92121370984948       -2.96015841285093       -0.08904145080043
H           -4.78775034644186       -1.42753558421477       -0.13929252538760
H           -5.13071691927169        1.24494113219816       -0.07245050881840
H            4.36625910858666        1.56256825770024       -0.06145410850915
H            4.77033630045048       -0.13679602802483       -0.05440232588294
