26
 energy: -43.215784103790 gnorm: 0.000647779549 xtb: 6.6.1 (8d0f1dd)
N           -2.96493083419375       -3.27293397472232       -0.00864910825190
C           -2.82914424435379       -2.13055966697232       -0.00488655265310
C           -2.65998078296727       -0.74537724473240        0.00060273186486
C           -3.68151407279629        0.20116227932514        0.01384249118228
C           -3.10485742201493        1.46470504364461        0.01682629736663
C           -1.70448803122499        1.36420810439043        0.00608681738504
C           -0.93235502328794        2.52659857960916        0.00552250928880
C            0.41586443367555        2.82915459537902       -0.00190684661222
C            1.58960605901580        2.08366626003496       -0.01071657551787
C            1.90552114462151        0.73655024242001       -0.01580356749545
N            3.22575595583968        0.44391807780509       -0.01664867352793
C            3.34960044781382       -0.88544749909006       -0.02104038787605
N            4.55912651033497       -1.48131200043743       -0.06707223317291
C            2.08806060603270       -1.52267712168008       -0.02278766674183
C            1.12899212601906       -0.51495944747008       -0.01834506060946
C           -0.23795114149155       -0.81292630464744       -0.01554503562761
C           -1.39252072183161       -0.07219426239150       -0.00431052070419
H           -4.73381357087700       -0.01871726938409        0.02059373041867
H           -3.64850126715213        2.39219077290927        0.02616167050749
H           -1.56131484643792        3.41296726998458        0.01281237955646
H            0.60556641515488        3.89750351983112       -0.00022296149353
H            2.49480248861891        2.68198058412342       -0.01391677213947
H            5.36766221363890       -0.89965516052313        0.06654858390527
H            4.63577558040445       -2.46416932331934        0.12380110669842
H            1.91059679676002       -2.58107863915266       -0.02679981091542
H           -0.42144103300114       -1.88588762483397       -0.02140385303497
