23
 energy: -40.031687667133 gnorm: 0.000757866544 xtb: 6.6.1 (8d0f1dd)
N           -3.29116748037377        2.76183498645685       -0.00314253120874
C           -2.88790538007809        1.68631447400321       -0.00262977604258
C           -2.41629946972765        0.36917529701391       -0.00179279235263
C           -3.23870179988821       -0.78124542667596       -0.00089759855067
C           -2.42897364592330       -1.88799764358689       -0.00014542729972
C           -1.06062459574788       -1.49318280337379       -0.00057348085132
C           -0.07345795689818       -2.45407724310011       -0.00011628618050
C            1.33668847349884       -2.45934052103007       -0.00037176941578
N            2.28035258034873       -1.56895510238901       -0.00086800331643
C            2.31956880696508       -0.25233723674826       -0.00152655663711
C            3.56306496121473        0.40227399757278       -0.00179343063716
C            3.29643696447162        1.76940214067386       -0.00263287977734
N            1.99349685623541        2.03367842884123       -0.00290707256404
C            1.32778002737881        0.85814593149468       -0.00222505241578
C           -0.05073703938861        0.93390391519303       -0.00226818191836
C           -1.05952893578286       -0.02005276991763       -0.00160700965182
H           -4.31323965184335       -0.76698126837764       -0.00079914256604
H           -2.76029830376336       -2.91027791820309        0.00064023219532
H           -0.47775697549296       -3.46240937721415        0.00057154968455
H            1.75527423189088       -3.46599145838313        0.00003320966100
H            4.52034932875915       -0.07938520579367       -0.00145451672083
H            4.00856713045353        2.57560305893239       -0.00304802764499
H           -0.40331971980850        1.96196602811149       -0.00289950798908
