26
 energy: -48.800268388970 gnorm: 0.000612905678 xtb: 6.6.1 (8d0f1dd)
N            5.42726271963534        1.45027016849854        0.00588972291669
C            4.55198206802169        0.70688417414612        0.00457575333608
C            3.48158231274352       -0.19496595359367        0.00156655335796
C            3.59193801853845       -1.58601400581803       -0.00223247153021
C            2.31062160112423       -2.12274432085756       -0.00395456836653
C            1.35384114989720       -1.09267364097173       -0.00134208927229
C           -0.00073740973835       -1.40080880735826       -0.00239062575337
C           -1.15862415962400       -0.64561915802537       -0.00049840558286
C           -2.43198106176984       -1.28744399096422       -0.00247290934897
C           -2.62180385466811       -2.67509990826933       -0.00664358386136
N           -2.75532191351633       -3.81565861077675       -0.00928039195345
C           -3.45037414356844       -0.33217139578280       -0.00006006631471
C           -2.86134158460967        0.93197525496163        0.00328408334828
C           -3.55541503938382        2.14981236060851        0.00506862336016
N           -4.14825144367912        3.13201649407207        0.01053206032487
C           -1.43886698204978        0.80277293040800        0.00339927812388
N           -0.73274198759398        1.90510559839020        0.00632173343123
C            0.52982815093359        2.21662326673506        0.00730828384634
C            1.74497749084403        1.50825174131487        0.00570380890125
C            2.09880804903579        0.17496913797685        0.00220942013195
H            4.51445022985827       -2.13671463960158       -0.00348594361197
H            2.07478615983547       -3.17121832104102       -0.00681440259770
H           -0.18849035777863       -2.47248550318023       -0.00530246686989
H           -4.50531018609628       -0.53745654539603       -0.00102067086185
H            0.66119712863804        3.29755429270926        0.01013393655264
H            2.60538929497075        2.17218182921553        0.00766064329385
