26
 energy: -47.211596990205 gnorm: 0.000689124396 xtb: 6.6.1 (8d0f1dd)
N           -4.32170020064334       -1.61481862832901        1.30940577565123
C           -3.50580888598337       -0.94082234611692        0.85714434977350
C           -2.56492583667405       -0.05760722904268        0.33425688275129
C           -2.79472528222637        1.31587717177352        0.11510055511562
N           -3.92991123472025        1.96916650552403        0.41290975960547
C           -1.62865737059601        1.89024962235257       -0.44230633567437
C           -0.63845238024410        0.92727325222293       -0.55659353597026
C            0.70910352266969        1.24173626865050       -0.72641309101535
C            1.85745535343581        0.52387281819090       -0.45482728357482
N            3.00145637536721        1.19742006903087       -0.25620840948977
C            3.87239521451611        0.33970934833991        0.30765221788614
N            5.08830277723919        0.76140164566879        0.69253717771968
C            3.34680897240787       -0.96182797322332        0.44195973184531
C            2.07826683467922       -0.92533873239882       -0.11424871991804
N            1.40413524634026       -1.98307739524116       -0.51100297736692
C            0.17601478255923       -2.16631362223383       -0.86842418918786
N           -0.92733992484118       -1.58881409555465       -0.44683642149322
C           -1.27675009507286       -0.37952125280651       -0.17231128861238
H           -4.70910294610779        1.46205464302469        0.79611133040020
H           -4.05109853654568        2.92982685796867        0.14730900681587
H           -1.51442863487691        2.93387890851525       -0.67200064502151
H            0.90602671359727        2.29856267472555       -0.87294006592962
H            5.37753311891204        1.68605718320769        0.42732589330045
H            5.76637067321011        0.10646632158637        1.03715707590655
H            3.85588555936537       -1.82199952687408        0.82683577762178
H           -0.00030418726099       -3.06680763545906       -1.45473285453771
