27
 energy: -46.946955399809 gnorm: 0.000579073846 xtb: 6.6.1 (8d0f1dd)
N           -4.72783939051979       -1.65892014084164        0.05351788615977
C           -3.82270469402973       -0.94754108907815        0.03001225710869
C           -2.76268681888685       -0.04452753751640        0.01035089603466
C           -2.92766911123462        1.36346037897573        0.00961815893803
N           -4.11265499561399        2.00682372213738       -0.01164911325461
C           -1.65408611865235        1.93561712767156       -0.00207687321469
C           -0.67278469929658        0.93558432737021       -0.00748823722837
C            0.66767089457107        1.28454208752715       -0.01507891887276
C            1.86266249511720        0.58410194587368       -0.01509434174522
N            3.00575460184485        1.29743820414626       -0.01469535743859
C            3.98597040753200        0.38518299312659       -0.01234838983038
N            5.28389906818502        0.71843486619730       -0.04157330349789
N            3.57831969912126       -0.89829786127449       -0.00944813357937
C            2.23988730493349       -0.84095042808252       -0.01212872055652
C            1.54177151998587       -2.04860281475786       -0.01207138219355
C            0.20859029596540       -2.39432901931348       -0.01018279212233
C           -0.99531992334144       -1.69176202443641       -0.00431962746227
C           -1.38117806879451       -0.36230565460535       -0.00063255761832
H           -4.96359412273835        1.48174809293389        0.09018090020178
H           -4.14514003511166        3.00457221848996        0.09341545247448
H           -1.45254590265830        2.99091950527786       -0.00569942633027
H            0.84155891068790        2.35650253137733       -0.01938116936489
H            5.96794605282251       -0.00571678337167        0.07909764732186
H            5.53713869238831        1.68241948845480        0.07367739215417
H            2.23044224280964       -2.88671437455220       -0.01385792765095
H            0.05436889783642       -3.46848778082362       -0.01241306136623
H           -1.85847823792268       -2.35379005090571       -0.00106298916623
