26
 energy: -48.784673876216 gnorm: 0.000939057776 xtb: 6.6.1 (8d0f1dd)
N           -2.42804596367359        3.26398643929202       -0.58687487368960
C           -2.34246725399871        2.13790556534887       -0.37990924134786
C           -2.36727228627290        0.74542137815191       -0.22428660935542
C           -3.54279634420718        0.00416042840973       -0.47298515537717
C           -3.25246024285654       -1.33161621123142       -0.33427629659010
C           -1.87863204143307       -1.49851191996282       -0.02601883616925
C           -1.40530351276018       -2.74401506417364        0.34204460343869
C           -0.12135681143103       -3.24281031330624        0.59567721908863
N            1.04601260218483       -2.82436212711916        0.21780127593055
C            1.60334214626589       -1.70673531612536       -0.14591623657416
C            2.93323843629903       -1.71898320596495       -0.63969218658919
C            3.43333054991615       -0.43868261740883       -0.63037163634028
C            2.44517588296847        0.44284136796744       -0.13347883713910
C            2.70226963609102        1.81301848267861       -0.00249546037055
N            3.02677957965109        2.91324680228320        0.04864173582582
C            1.25063519950775       -0.28602639884893        0.09293630114993
C            0.00604648496128        0.32420677791731        0.26698475359398
C            0.06666566041607        1.68098688043150        0.69991064917984
N            0.11139119363290        2.69414831622455        1.23290089140114
C           -1.29694516695178       -0.14631782217326        0.03419440701534
H           -4.49159900340494        0.43788281232633       -0.72857143074755
H           -3.94836351778302       -2.14306178430593       -0.43988428756746
H           -2.17991794708088       -3.50063869984437        0.40966976204715
H           -0.08284289298183       -4.23878824384583        1.03123925989241
H            3.45201365405972       -2.61175139013541       -0.93087836456205
H            4.41791837158289       -0.12996701238455       -0.93019210434330
