25
 energy: -44.280884702361 gnorm: 0.000498471461 xtb: 6.6.1 (8d0f1dd)
N           -3.99895430892197       -2.60753107698795        0.00430016182688
C           -3.56885707602236       -1.54199272998751        0.00315019668109
C           -3.03626642458918       -0.24909693423210        0.00210101902705
C           -3.78510849727793        0.94134815572456        0.00221164672497
C           -2.90434168291662        2.00098242037891        0.00087931288948
C           -1.56863922418661        1.52685767597536       -0.00010189443644
C           -0.51674412209360        2.42931804421424       -0.00144164620556
C            0.87847473276134        2.33456692344553       -0.00266075787817
N            1.75434073004462        1.36500385812260       -0.00318054652939
C            1.71921450288772        0.06211818294147       -0.00260687973185
C            2.96641053873055       -0.63625658642638       -0.00368396766103
C            4.22644734748991       -0.02762796568682       -0.00554365397656
N            5.27325401530614        0.44396794426059       -0.00636929701445
C            2.72659581657549       -2.01390077108577       -0.00272000839728
C            1.35562998878982       -2.22192796836574       -0.00110470217080
C            0.67249600961148       -0.99072785892264       -0.00099477852457
C           -0.71126231720480       -0.95698398113961        0.00033214581814
C           -1.65089978235936        0.06266811697336        0.00069897828516
H           -4.85819546207718        0.99584276837749        0.00315843650537
H           -3.17634432061293        3.04065004011547        0.00060744267073
H           -0.85762478888888        3.46039209627686       -0.00156492877057
H            1.38087259457240        3.30113785241259       -0.00345718687268
H            3.48568454203819       -2.77475420088790       -0.00320761613773
H            0.87219241504040       -3.18262673588917       -0.00010078848017
H           -1.16231038719667       -1.94737186220748        0.00125176465835
