27
 energy: -47.740965946398 gnorm: 0.000708022832 xtb: 6.6.1 (8d0f1dd)
N            5.38541441595555       -1.58263669510205        0.01833857084895
C            4.55016342071409       -0.79263368726611        0.01294607478261
C            3.53735896726480        0.16995562261056        0.00645357605832
C            3.73534183564540        1.55307671702061        0.00273741656120
C            2.49504591521666        2.17122473100791       -0.00299883461137
C            1.47102776721174        1.20620952040199       -0.00291572154158
C            0.14557324512611        1.60639201780790       -0.00599610292303
C           -1.08124242961416        0.96095426774566       -0.00485715074274
N           -2.16610274725717        1.77009490500444       -0.00519093154889
C           -3.25518509262966        1.00645375473242       -0.00244954283944
N           -4.49544530974285        1.51404118807886       -0.01283392215005
C           -2.90961974223526       -0.37902036956962       -0.00025701697318
C           -3.82215064051883       -1.42886914894235        0.00636549003541
N           -4.60646688148708       -2.27072656124315        0.01386539119809
C           -1.50197259128768       -0.44156467838371       -0.00198213523107
C           -0.84144500143969       -1.67519499898468       -0.00297845121901
C            0.47397150143811       -2.07736109317649       -0.00216597276917
C            1.70904549352866       -1.42068351286296        0.00211834096235
C            2.13534709998480       -0.10986218180457        0.00253671318655
H            4.69270372577281        2.04170739882511        0.00415036344536
H            2.32807519016245        3.23260214247980       -0.00675427976192
H            0.01403266637586        2.68427727136464       -0.00872129038429
H           -4.61427786586021        2.51052837565732        0.01940111406883
H           -5.29560727250109        0.90877641915437        0.03105494947873
H           -1.54585350368259       -2.50341792702676       -0.00432312325557
H            0.58362350775245       -3.15636356697633       -0.00383396006064
H            2.54399447580680       -2.11770062305294        0.00527221008556
