23
 energy: -44.031465892228 gnorm: 0.000652499168 xtb: 6.6.1 (8d0f1dd)
N            3.97934758289603        1.78171434206996        1.09589258258249
C            3.29915331952646        0.94865469195564        0.69119939621777
C            2.49587599062217       -0.08476520745219        0.20536761488214
C            2.96938596697855       -1.25085728880743       -0.44545424513907
C            1.91546225555410       -2.04607180443705       -0.82902213405326
C            0.71082198724339       -1.47262736997927       -0.35800581573563
N           -0.39578446322590       -2.12858394402455       -0.27139988341166
C           -1.60293645482509       -1.77590326085692        0.15269876008754
N           -2.26561571053735       -2.67919052471332        0.90672693632824
N           -2.29725760433876       -0.74095395832009       -0.27845195228321
C           -2.01800253547797        0.51107343316776       -0.40059543984382
N           -2.91644014947427        1.37823164419504       -0.89735612424913
C           -2.51636529167062        2.59334396771148       -0.53258473054645
C           -1.29688776872650        2.61475136462577        0.15485838617404
C           -0.84690315683727        1.29355402484643        0.19663047743097
N            0.39054643713964        0.96335318587881        0.46359583394131
C            1.08504155439242       -0.10824606874554        0.21678459146271
H            4.01115893248673       -1.46062764625716       -0.61239108130959
H            1.97622140762434       -2.99827608001703       -1.31958233529957
H           -1.85706713437442       -3.58663140563822        1.04786051285754
H           -3.25580629025739       -2.55886211464237        1.03303294587520
H           -3.12247064113738        3.44557119704057       -0.78709828921467
H           -0.76723311188178        3.47580926690005        0.50908148054692
