26
 energy: -48.792693199944 gnorm: 0.000464638836 xtb: 6.6.1 (8d0f1dd)
N            4.85530030716629        1.21091670947144       -0.00088892203399
C            3.71666319004332        1.08409902122238        0.00006378613808
C            2.29270225790074        0.98366896049706       -0.00118596333946
C            1.70605098603666        2.25281685482172        0.00086375546671
C            0.40067063438280        2.72066785392596        0.00136256379164
C           -0.85459770093023        2.13091090132368        0.00001818805367
C           -2.01541309384816        2.93177745182944        0.00118076603321
C           -3.15080874752873        2.13881252546863       -0.00045626705838
C           -2.75495949221492        0.79525710466388       -0.00270390149106
C           -3.62178821768337       -0.30408687500476       -0.00454679153988
N           -4.36755721186070       -1.17630735809000       -0.00695491182238
C           -1.32946811398160        0.72734282638405       -0.00257451293095
N           -0.76867030745396       -0.44659897448016       -0.00445857238919
C            0.44584367546697       -0.90779574197606       -0.00490517091529
C            0.62118992885905       -2.32732754561422       -0.00725816361868
C           -0.41519953031631       -3.26859446142304       -0.00914844374890
N           -1.23499074760458       -4.07152902136859       -0.01079060400780
C            1.98650431283193       -2.62189517603900       -0.00730099334097
C            2.69656743725492       -1.42875387806851       -0.00504173914101
C            1.81345312574605       -0.33278385151034       -0.00351737101644
H            2.44527141911176        3.04815800066209        0.00243319502796
H            0.34458701456476        3.80558748820048        0.00327889418004
H           -2.00950115754270        4.00726835104917        0.00313090295219
H           -4.16882726285795        2.48289430113790       -0.00003013629046
H            2.40926911238076       -3.60961375853980       -0.00882179003027
H            3.76897418297717       -1.35182150804340       -0.00452772182839
