28
 energy: -52.253639360230 gnorm: 0.000862241315 xtb: 6.6.1 (8d0f1dd)
N           -5.27442605877606        1.07400140502428        0.94578498791541
C           -4.42305915105387        0.34360313386286        0.69471809511409
C           -3.36890091150512       -0.51560949255845        0.37805427917288
C           -3.43654499089517       -1.89096542167312        0.22271790482473
C           -2.16395673149690       -2.36160859042872       -0.11362666627778
C           -1.25314153796902       -1.30241102888171       -0.17172237647318
C            0.10974258869507       -1.55482460750825       -0.34715910672211
C            1.23654574568537       -0.77856782876071       -0.21374455665070
C            2.53800517289706       -1.36475954434300       -0.10690122544411
C            2.82342144979504       -2.71039385535564       -0.35249931371910
N            3.03454955822824       -3.82016729483023       -0.56450231794853
C            3.44675585362979       -0.40021701445305        0.32233115648349
C            2.78239006480414        0.82633617502034        0.43888133035165
C            3.35554459442712        2.04518290895639        0.81394836660884
N            3.82107486972596        3.04831827129620        1.12438593570323
C            1.42174934107973        0.65783512283558        0.05997619926822
N            0.66824560733444        1.70055641099953       -0.15412297894896
C           -0.57826229596402        1.97952270976598       -0.39694483919120
N           -0.78178159178296        3.20342814315509       -0.94164176825678
C           -1.76078066609536        1.25717630004976       -0.03072827876066
C           -2.02068853211185       -0.07449227783436        0.09927880232957
H           -4.32001924498819       -2.49031163909672        0.34501129015906
H           -1.91092959726158       -3.39281073234215       -0.27883645536696
H            0.32502980519662       -2.60986388806635       -0.49999796703193
H            4.48988543411221       -0.56621485470989        0.52196235972837
H           -1.70299443998408        3.59581522038771       -1.01737643560904
H            0.01836116490744        3.79515388639117       -1.08834107924425
H           -2.61504161253094        1.90416415149474        0.14935801038199
