24
 energy: -43.755161596894 gnorm: 0.000522463755 xtb: 6.6.1 (8d0f1dd)
N           -2.46223851864430       -3.31821397260979       -0.20981192434207
C           -2.40793597637467       -2.17327924489451       -0.12851058280057
C           -2.38011982690816       -0.77870484660070       -0.05138232257493
C           -3.50429122912957        0.07186317628684       -0.23930410998893
C           -3.10596219408557        1.37311641413792       -0.10770760509678
C           -1.70459450577310        1.42147751856385        0.14013517180737
C           -0.99209239916811        2.59381591149578        0.12418437104735
C            0.38555502814042        2.83734636546689        0.27366948798797
N            1.42843615935721        2.11772739141174        0.01625141735508
C            1.81346121735813        0.90668267308004       -0.15293635447255
C            3.02627625195660        0.39786256925451       -0.57252188369475
C            3.16791690161150       -0.86482695552473        0.06344759097442
N            4.25705784821466       -1.64024573016848        0.03965267211696
N            2.09205732130289       -1.22835798747090        0.77644702374913
C            1.13702849308835       -0.33608434445391        0.51889251345391
N           -0.10700616822340       -0.55896244438610        0.53916626474577
C           -1.25492331590636        0.00747722994290        0.23912587348427
H           -4.49872000994142       -0.27983869310942       -0.44670042434445
H           -3.73363223559446        2.24157957806811       -0.18524933839685
H           -1.59481650141585        3.49202726515041        0.04030454133835
H            0.64688564648025        3.84430472990129        0.59411772300296
H            3.74517970847131        0.87468856366675       -1.20835756809331
H            4.23196722675878       -2.51300112818856        0.53676071068855
H            5.02677616772416       -1.43025990852138       -0.56888995884737
