30
 energy: -60.493811882359 gnorm: 0.000706828756 xtb: 6.6.1 (8d0f1dd)
N            3.99119571471274       -2.76190674735302       -0.47344535631229
C            3.00217757824293       -2.20999085224072       -0.29786173240774
C            1.71576838290310       -1.62021469317694       -0.13211939425026
C            0.72679387591270       -2.59402861396702       -0.11684592659586
C           -0.65598183390581       -2.60201657131023        0.00832266689671
C           -1.66477343291418       -1.65741560825117        0.04896007305047
N           -2.91263229578027       -2.16602082376845        0.15506323228894
C           -3.77482767892582       -1.15973238473861        0.12403122808771
N           -5.09473742702951       -1.32329938443105        0.20939850922334
C           -3.09715155013930        0.10561163523862       -0.01212050674012
C           -3.83561409111756        1.28792796674784       -0.05633715308817
N           -4.60317395663085        2.14393068960478       -0.07145153192275
C           -1.72964925463546       -0.18321253635691       -0.05022509830158
C           -0.73534919945906        0.80810759175826       -0.13259631997976
C           -1.22787997157456        2.14217580986367       -0.25815755428661
N           -1.62587801660797        3.20838278158612       -0.38963047836475
C            0.65596717529989        0.81017967603071       -0.06385084983807
N            1.20528008500674        2.04398329697538       -0.02960536151465
C            2.51902974528125        1.91769750488586        0.07528211646398
N            3.34505625473932        2.95816822641545        0.16153001268850
C            2.90313534732242        0.52836978451813        0.07943238502566
C            4.24166296709435        0.16200171179452        0.21652733643597
N            5.37436314210592        0.02862672906430        0.36310958443296
C            1.72202089392794       -0.21270893352020       -0.01806108585032
H            1.14168380486678       -3.59461816949543       -0.20016766151258
H           -1.08121781942490       -3.59828334093867        0.06492011487176
H           -5.70737311478842       -0.52628626077322        0.17543614903045
H           -5.46914762328472       -2.25085548209125        0.30580641107219
H            4.33705263975927        2.81780992896786        0.24849812698634
H            2.95825154674092        3.88612517846221        0.14566077380922
