25
 energy: -43.485220209807 gnorm: 0.000593020474 xtb: 6.6.1 (8d0f1dd)
N           -3.00250527403166       -3.25453132400165        0.22937480338359
C           -2.84781975066671       -2.11981758759877        0.11944189093538
C           -2.65017084913486       -0.74485429017554       -0.01061265103283
C           -3.63546738607931        0.20161503153439       -0.30189466963722
C           -3.04394857564950        1.45413756442469       -0.35255514850762
C           -1.66502885950551        1.35092911245698       -0.09848630327408
C           -0.89128137901060        2.49018732602500        0.08292273322419
C            0.46000477889421        2.70685597000858        0.34672545168452
N            1.53654233782284        1.99547660936291        0.16139333004963
C            1.85612044740560        0.75326016937786       -0.00091538505789
N            3.13967973731576        0.46913354621202       -0.30343037028761
C            3.30585484995792       -0.84325844685258       -0.15404480132628
N            4.49196370934222       -1.42864602751892       -0.37396291088118
C            2.10014604314484       -1.49730725551859        0.22955471856220
C            1.11878107420016       -0.52383621341744        0.26832309398788
C           -0.24666351069143       -0.82395712465864        0.31708026673044
C           -1.38537535693421       -0.08625513765903        0.10446065511756
H           -4.67651164947985       -0.01742505800659       -0.45742228512169
H           -3.55806715470227        2.37794910855613       -0.54543801132420
H           -1.47167316440085        3.40681191062813        0.04282041060863
H            0.70429605277790        3.72117204424993        0.65978747791818
H            5.27182551995462       -0.84775918092124       -0.62512157701849
H            4.63237644259920       -2.40347798069659       -0.18387330180530
H            1.98512126138394       -2.54728478516537        0.42087053493831
H           -0.43752202161130       -1.89088381714558        0.41713940383429
