27
 energy: -51.727149262539 gnorm: 0.000775974812 xtb: 6.6.1 (8d0f1dd)
N           -2.10283867892754       -3.82862942644007       -1.01227831677204
C           -2.19141957463852       -2.75654395309105       -0.60729515398523
C           -2.35181255647699       -1.45942516960040       -0.11801296849068
C           -3.49592446724363       -0.99371229001930        0.58658771486529
C           -3.32977708280173        0.31523104151999        0.96210472933558
C           -2.11021506053195        0.78985441783573        0.41425762312478
N           -1.85596206000687        2.04020094883951        0.23930305570063
C           -0.82208753034664        2.67767195990886       -0.30210149240438
N           -1.13601858868945        3.73571588023597       -1.08681265622602
N            0.44705466938529        2.54169824630171        0.01603504006736
C            1.19740089761201        1.49043134913718        0.18881494089977
C            2.52642068161898        1.56587565379372        0.60665740797922
C            3.15704002917424        0.34340182407355        0.36712444738068
N            4.44409317676534        0.03973749895559        0.58470957390401
C            2.20096662048335       -0.57883523942017       -0.16542693589965
C            2.51518351607743       -1.89718562483945       -0.48750989360099
N            2.86842640165505       -2.96246049711021       -0.74010329900663
C            0.94352746482311        0.04867952218417       -0.22047111707560
N           -0.14113789819217       -0.64668018533295       -0.42357375292219
C           -1.40006257323627       -0.42455327728259       -0.16512979127271
H           -4.35647839150190       -1.60573219112990        0.79295292550114
H           -4.03547739887132        0.92967723330887        1.48696088232948
H           -0.40870976091029        4.38961941968653       -1.31769017651434
H           -2.09603445848647        4.02780135387271       -1.14076033696986
H            2.99997765064897        2.45355576714164        0.97954746410764
H            4.78839019760920       -0.87505491673676        0.34727390695502
H            5.06941623280948        0.71475041820437        0.98679802998921
