27
 energy: -47.724805405638 gnorm: 0.000620334227 xtb: 6.6.1 (8d0f1dd)
N           -2.18928112682476        3.55418562211573       -0.00075251715957
C           -2.31300526493030        2.41243102116847       -0.00115849622072
C           -2.52272083574814        1.02994807629544       -0.00249440901100
C           -3.77902630288131        0.40335221393055       -0.00818732520638
C           -3.59144903392906       -0.96471647748109       -0.00723109184756
C           -2.21323402347456       -1.27265168888854       -0.00144551002921
C           -1.79289085018709       -2.58931522799101        0.00005459959460
C           -0.55579756132312       -3.23245744902277        0.00340834239266
C            0.75655488754289       -2.80335539999661        0.00386513160084
C            1.39357592655057       -1.56060273769595        0.00491253047304
C            2.78693418100871       -1.48899701745853        0.00428275682619
C            3.21356183644844       -0.15046581274137        0.01047458188253
N            4.48460393312742        0.29181126884549        0.03314306904683
C            2.06159191926774        0.66596011720304        0.01529423752164
C            2.10457455935800        2.06104158289258        0.01649501765370
N            2.23418405788142        3.20318504484960        0.01347447204223
C            0.90170403131308       -0.15720543782243        0.01029035312606
N           -0.26166556514526        0.42363947341479        0.00815512171414
C           -1.50570486321323        0.03586973118898        0.00186469324057
H           -4.72277570594559        0.91817090310356       -0.01235660885456
H           -4.37547642286203       -1.70104506257760       -0.01030909919428
H           -2.62730366900376       -3.28597952478947       -0.00258726182348
H           -0.64736802581446       -4.31339568586889        0.00448917694878
H            1.47228235005328       -3.62115599831631        0.00428391589134
H            3.44714541315074       -2.33854237979246       -0.00013782351302
H            4.66701595744659        1.27890048649280       -0.02169268212689
H            5.25094485643378       -0.35170458305798       -0.04733938856847
