26
 energy: -47.203432589658 gnorm: 0.000802931522 xtb: 6.6.1 (8d0f1dd)
N            3.27806190966008       -3.01318499310335       -1.15217761905789
C            2.96062910866984       -1.99774383025355       -0.71465403835304
C            2.60175886074324       -0.76044135966926       -0.18427262822943
C            3.44520588245484        0.08813830015257        0.56598037665948
C            2.76176497835897        1.21559600976529        0.96944253080037
C            1.46670649392699        1.18528471659726        0.41113125179998
N            0.73253931224504        2.24023702550245        0.25971369054497
C           -0.47026746946448        2.43709494963026       -0.25560019334597
N           -0.61638124889161        3.58027120020822       -0.97668361262553
N           -1.58448968262629        1.78907502144750        0.02490309790723
C           -1.84549886107643        0.51972316226760        0.13991199419575
C           -3.09485194363854        0.03302661394234        0.52641127739598
C           -3.15385381275487       -1.33912114238430        0.25944844685890
N           -4.21834356170686       -2.13867273886155        0.45130803066295
C           -1.90532671937966       -1.76911666978911       -0.25504609506261
C           -1.02930350023791       -0.69652999336483       -0.29154233513440
N            0.25208991352886       -0.89021390786342       -0.50454351576223
C            1.30635588382623       -0.18873972150749       -0.21939543950866
H            4.47495450234680       -0.13365262465802        0.78638731992951
H            3.16126710121657        2.03721875271721        1.53211431714739
H           -1.55017662205052        3.91368612429110       -1.14138760345307
H            0.13836136140113        4.24420646902090       -0.96510116762557
H           -3.90016980189154        0.63902522022507        0.89510923402435
H           -4.16348372323072       -3.11597263227328        0.22918688584424
H           -5.05712931486347       -1.77876338797491        0.86920857381772
H           -1.64534297676569       -2.77898767326579       -0.50834748433217
