27
 energy: -47.717226970313 gnorm: 0.000882081669 xtb: 6.6.1 (8d0f1dd)
N            4.38413012002550       -0.64045054168809        0.04560285619082
C            3.40787577164363       -0.03513391107794       -0.00724854653703
C            2.30229899142334        0.81023053557294       -0.12954279859570
C            2.43214647846986        2.13196035894920       -0.58573594869504
C            1.18559787455752        2.73111458893494       -0.61775055224271
C            0.21614347298529        1.80635700636987       -0.19346155101017
N           -0.98850617661750        2.21705990909052        0.12175890272748
C           -2.15724185548274        1.71014942899798        0.36111990487627
N           -3.01943807037739        2.54216221572233        1.00672795738064
C           -2.71327187441377        0.48467197446563       -0.12334549343359
C           -2.15771153937006       -0.74044116391149       -0.34703511648738
C           -2.98438787869412       -1.83649357541131       -0.74573813271866
C           -2.29277533670563       -3.00838866490198       -0.58176386535420
C           -1.00066975907724       -2.70991220974844       -0.11302678041792
C           -0.84492729657244       -1.32813325719392        0.00024186485819
C            0.41990530008641       -0.75620022331360        0.25818526177871
C            1.37422036240165       -1.72143438849599        0.69469142667325
N            2.07093202565939       -2.51076900909068        1.14717581815824
C            0.91674927987295        0.52467223082113        0.05410981192115
H            3.36702772189595        2.59110833671183       -0.85177159295366
H            0.97283229317526        3.74669338779249       -0.88981276464951
H           -2.70286075913993        3.46652430349981        1.24012366997847
H           -3.99329332268612        2.31874009292828        1.09188470392855
H           -3.77563604875254        0.55074056688120       -0.33681037398965
H           -4.00307022443188       -1.73207875486182       -1.07003500063990
H           -2.66089509040223       -3.99825205369640       -0.77947474090124
H           -0.23461266488097       -3.43740409354467        0.08002406825256
