25
 energy: -44.274890481976 gnorm: 0.000515974360 xtb: 6.6.1 (8d0f1dd)
N            3.73558285921621        1.88256679834804       -0.50853723415017
C            3.05294173891278        0.98749214272611       -0.28034232964106
C            2.34563007805285       -0.20482939103199       -0.07512609039007
C            3.00362183916393       -1.43995187164567       -0.07195446968471
C            2.05380829579081       -2.43841395333989        0.04774120485245
C            0.76040828470895       -1.88238625741953        0.07570111481143
C           -0.32500889496127       -2.75152211162647        0.15839251147687
C           -1.70261633458229       -2.64899389174296        0.08147857296402
C           -2.57762242201159       -1.58591923738435       -0.07941694263658
C           -2.45205290119670       -0.20711517290044       -0.11630756337515
N           -3.61688921228146        0.46536718670604       -0.24932503827115
C           -3.35268043613062        1.76288919726327       -0.18324762333303
C           -1.99412092901190        2.01080768671270        0.00793895668925
C           -1.35216823204227        0.76002049931619        0.03665806318765
C            0.04692304675548        0.64448075341805        0.13026381815336
C            0.65173816955598        1.90897407452025        0.40701954246342
N            1.06095384542741        2.93045888284643        0.72687642782010
C            0.93662198828887       -0.42076861994686        0.02565931533727
H            4.06687506639682       -1.56939127603480       -0.15398796540078
H            2.26236660650412       -3.49175484360236        0.08986195959704
H            0.00996614427184       -3.78031985039991        0.25828162178821
H           -2.20449703378813       -3.60870649956981        0.12990010698060
H           -3.61982652998755       -1.87021935504226       -0.18015548468369
H           -4.14193937175661        2.48708970831749       -0.27104284401140
H           -1.53038190049553        2.97402343351261        0.08969568195615
