28
 energy: -51.450790600664 gnorm: 0.000490946763 xtb: 6.6.1 (8d0f1dd)
N            4.81550122127420       -1.03807141685235       -1.36918759887191
C            4.04828684474361       -0.28749601500977       -0.95693099689386
C            3.11624266013249        0.62177622078634       -0.45723622391780
C            3.32806667564464        1.97144780600412       -0.17325624231893
C            2.16107694907227        2.52708616217374        0.34712645453994
C            1.14628397964799        1.56306480217303        0.37093351703196
C           -0.18883158944077        1.87675158365390        0.54400534556188
C           -1.36719506829922        1.19357750969916        0.27341507274302
N           -2.48206167692936        1.93835008803223        0.24704457958661
C           -3.49203959040033        1.15329342944404       -0.17492391710721
N           -4.72696689019693        1.65218994905780       -0.33791169062617
C           -3.06321889243786       -0.16479098129540       -0.40759642945560
C           -1.70552372159789       -0.20585794182453       -0.09930970407447
C           -0.99447199823612       -1.41088716741958        0.02116637851706
C           -1.76694059114059       -2.57583660538128       -0.17498033822251
N           -2.37704227768943       -3.53925680393470       -0.32273179512653
C            0.36731660870453       -1.66916010521963        0.34493342278560
N            0.67152150778595       -2.88176053512397        0.87933806827657
N            1.41922094875280       -0.94425550571756        0.05393712626600
C            1.78267445422269        0.28632359653511       -0.05904624350306
H            4.25478234169400        2.49297614776559       -0.33399517275641
H            2.03799765294447        3.55352646971797        0.63915050183032
H           -0.38089169171228        2.91773293574405        0.78364881490225
H           -5.48790152459060        1.05939159284027       -0.61267389565254
H           -4.89855053902697        2.60706759648022       -0.07976059686102
H           -3.67652635069496       -0.98506106113786       -0.72482490134558
H            1.64281571005434       -3.14448457185468        0.89951256437293
H           -0.02538362908171       -3.60660035993775        0.91494604152012
