29
 energy: -55.966287191571 gnorm: 0.000965895630 xtb: 6.6.1 (8d0f1dd)
N           -3.95363374964750        2.74655702628664        0.58889139462334
C           -3.59121878566228        1.68625823678541        0.33549555081183
C           -3.19431917186953        0.38304293254671        0.02733131617079
C           -4.04071217113683       -0.62948738474636       -0.46687399795889
C           -3.32577516657694       -1.79646422946377       -0.65202626245686
C           -1.99712404861927       -1.60257549665211       -0.22539837470251
N           -1.18581307517450       -2.59653046481905       -0.04549171230714
C            0.07158768623965       -2.78368176071726        0.27007181456066
N            0.33041229074577       -4.00849565705912        0.79372623712346
C            1.20390047446311       -1.97290387545066       -0.01527205261537
C            1.35644648100517       -0.61336910615501       -0.10218049167637
C            2.64832429608040       -0.04069444553507       -0.30021349454209
C            3.80883131002875       -0.75542100497388       -0.58827659186316
N            4.77217927365512       -1.34063902824336       -0.82092049268269
C            2.58895257867837        1.35083628962670       -0.10636395098630
N            3.61026612227126        2.21507443730641       -0.17423760914097
C            1.23870161891785        1.69051386836219        0.18053059475936
C            0.82093810460872        3.00181200375489        0.41705375571197
N            0.57308943362490        4.10770154467269        0.60643132256276
C            0.43619795689277        0.52898018072970        0.15317217887118
N           -0.86158610193809        0.66252124509547        0.26920384577686
C           -1.87697807321954       -0.12955253630523        0.11859828566146
H           -5.09018697117098       -0.49634837949864       -0.66160989088539
H           -3.71496081379393       -2.73239942477972       -1.00444283664069
H            1.26963712465645       -4.30928650529862        0.97708147037548
H           -0.43419105032229       -4.64468776990711        0.93185079197119
H            2.12548200714055       -2.53715156178073       -0.12310604110219
H            4.53553166876716        1.89196833079860       -0.39759354096184
H            3.44984813565476        3.19466693652334       -0.01373856005798
