28
 energy: -51.457131215348 gnorm: 0.000588531213 xtb: 6.6.1 (8d0f1dd)
N            3.57831485160519       -3.17168603739356        0.00367702673770
C            2.65641053108442       -2.48906716280742        0.00335348839543
C            1.47024674226940       -1.69919955702064        0.00336087769792
C            0.34559416891271       -2.53640167679367       -0.00122751087442
C           -1.01735486008450       -2.35153052456088       -0.00271037296001
C           -1.85141344597631       -1.23712261497826       -0.00002557871779
N           -3.17491896973886       -1.45127794317431       -0.00284797124505
C           -3.73312618353947       -0.22879039923973        0.00027314374486
N           -5.05413951034469       -0.03770134044298        0.00191012254899
N           -2.86158819937788        0.79403505783045        0.00481143211359
C           -1.64880438648226        0.22305283452748        0.00488140218455
C           -0.53763568807216        1.07700272786010        0.00863245754228
C           -0.95736510206434        2.43925159604054        0.01190775530288
N           -1.27495622791762        3.54110190517192        0.01446897924317
C            0.84663523328707        0.89270442050741        0.01003068450445
C            1.70315415154125        1.99396445029218        0.01530566395955
C            3.03782690515665        1.55862495784859        0.01681750684220
N            4.12764598433069        2.34482659306861        0.01974682856616
C            3.03231330441862        0.15256684668576        0.01178732217636
C            1.72054065637971       -0.31826860245211        0.00783710800151
H            0.62822019947518       -3.58588021568795       -0.00415235674276
H           -1.59933771319756       -3.26631822903781       -0.00666011217735
H           -5.41079876868278        0.90011594655752       -0.00979549023674
H           -5.66830694550364       -0.83060374854682       -0.01604257253700
H            1.39024628240976        3.02074878068871        0.01805521920454
H            4.03194285911653        3.34413186420013        0.03370648524494
H            5.04671383401295        1.94094437866791        0.03132844623786
H            3.91334291018191       -0.46144123551119        0.01123095144216
