27
 energy: -51.729213063440 gnorm: 0.000589747707 xtb: 6.6.1 (8d0f1dd)
N           -2.92728935115476       -3.64048116398293       -0.01077701680277
C           -2.08264878981697       -2.86546491019648       -0.00989246368613
C           -0.97513217946649       -1.97025061007403       -0.00534829375052
C            0.26282722442260       -2.64586251240670       -0.00747591683334
C            1.57317823202989       -2.25125461157564       -0.00549372573661
C            2.23741970081078       -1.01179262770947       -0.00028383814447
C            3.61125021019270       -0.92750951141311        0.00170703350594
C            3.94818787365293        0.45984913069785        0.00823556373065
N            5.17984540422856        0.97872231647631        0.01191898360927
N            2.86799293792260        1.23375733212650        0.01021299980449
C            1.78479365895173        0.43345226470504        0.00514957826532
N            0.64074650230023        1.02837374915237        0.00548476036268
C           -0.62012874459311        0.66009458115740        0.00257964125790
C           -1.63324638853364        1.62967544982887        0.00353652277550
C           -1.53015893811179        3.01778663007737        0.00649268939924
N           -1.54088829153084        4.16765490675088        0.00959630563746
C           -2.87849727918809        0.91828008302320        0.00109742647669
N           -4.09516464040845        1.46606864323740        0.00135430785033
N           -2.69009868974273       -0.39729038096702       -0.00154907864003
C           -1.36183329626075       -0.63569421567476       -0.00123584100963
H            0.13077710454028       -3.72406858428368       -0.01152344067304
H            2.27501202438818       -3.08077176052094       -0.00815402247331
H            4.31364999358579       -1.73991414680084       -0.00095184591168
H            5.27475631214852        1.97928718317632        0.01703560181366
H            5.99450288547429        0.39261228631411        0.01132392604879
H           -4.20495530704506        2.46498433606503        0.00341079791572
H           -4.89844493809643        0.86192056711698       -0.00028996779206
