28
 energy: -52.255936725736 gnorm: 0.000919781409 xtb: 6.6.1 (8d0f1dd)
N            4.59310149832704        2.39834663380225       -0.00274378698394
C            3.54306535322246        1.93882917331228       -0.00064548938306
C            2.21066030354604        1.42814808431833       -0.00137053837129
C            1.29069459631180        2.47982204999714       -0.00168191756342
C           -0.08829407556067        2.58219216714523       -0.00165605653719
C           -1.14989662801558        1.68718881896442       -0.00124610639945
N           -2.38108428101903        2.24624748254512       -0.00131841333027
C           -3.28303919175169        1.27013970142334       -0.00100660797010
N           -4.60059436334491        1.49781039085544       -0.00135688993271
C           -2.64821120701334       -0.01467272613047       -0.00079020292882
C           -3.32885906093676       -1.22908719745606       -0.00118904000495
N           -3.94636655223431       -2.19906943237172        0.00196709271416
C           -1.26299781292074        0.22659972934302       -0.00068914517140
C           -0.34899285693520       -0.83114420583480       -0.00034665217962
C            1.02004338144567       -0.93063189027380       -0.00036000578365
C            1.62149697557548       -2.23054580160435        0.00029768215895
C            0.92179886657316       -3.44150972452638        0.00130169952704
N            0.35103300955985       -4.43867519257666        0.00046330546401
C            3.00833564881676       -2.09779203504414        0.00015124766626
C            3.31931350872129       -0.74318854543084       -0.00047741771157
C            2.14436255287563        0.02487747382956       -0.00081456869904
H            1.78265436016823        3.44848811208449       -0.00203826554917
H           -0.45738018691454        3.60205841543035       -0.00203034485543
H           -4.93125704437895        2.44617499756016       -0.00089900217382
H           -5.25256944106466        0.73362245204553       -0.00017682001611
H           -0.84521610414788       -1.80077669807837        0.00008078578723
H            3.71202708168233       -2.90968670385182        0.00057039171758
H            4.31578175691253       -0.34199918607724       -0.00065798209020
