27
 energy: -46.916948634183 gnorm: 0.000466977365 xtb: 6.6.1 (8d0f1dd)
N            3.05820473848234       -3.32300444146550        0.67456974055386
C            2.83844801705936       -2.22237877986702        0.42207033941160
C            2.59670993484757       -0.88477381210145        0.11263762554847
C            3.55006414789568        0.04654962361962       -0.31618206947605
C            2.94550455707845        1.27896492322759       -0.51622124659440
C            1.58217182751084        1.19523903278536       -0.19324149805000
N            0.85415082886645        2.27464208493825       -0.08325054750328
C           -0.40125028970576        2.57311223864163        0.11774532618113
N           -0.58556576147831        3.90367268089827        0.40795729156745
C           -1.59639930825812        1.83392602867003       -0.09076301600798
C           -1.87557405606723        0.49195975960898       -0.11469729279088
C           -3.19423425967577        0.02095514828638       -0.28410689856944
C           -3.23301417099684       -1.35817337428021       -0.10188634583776
N           -4.33540353338009       -2.14646098402016       -0.12035454523267
C           -1.91923065217486       -1.80649798711779        0.16767208503119
C           -1.04175929261635       -0.72962540132703        0.14323199622014
N            0.24565563995830       -0.96609456208692        0.27272656634345
C            1.31649810148699       -0.25174818745850        0.13766279053791
H            4.59427328826190       -0.17122827401705       -0.45800093600170
H            3.43627462559790        2.18003719773249       -0.83310211503973
H           -1.46088760063912        4.21692140362113        0.78767163020291
H            0.24143913798204        4.42784685465911        0.63759913393266
H           -2.46594040003701        2.47234293505171       -0.21667328655799
H           -4.04283910047944        0.64631005584075       -0.49626366619195
H           -5.18941216906612       -1.77877125023809       -0.50259465099925
H           -4.21072874027643       -3.14359344036901       -0.14527915546796
H           -1.62049099747813       -2.82285072023150        0.33920250968942
