27
 energy: -48.530644522700 gnorm: 0.000316097696 xtb: 6.6.1 (8d0f1dd)
N           -5.35528931569607       -0.81961264072630       -0.00485068673841
C           -4.40249439819954       -0.17779143725206       -0.00519139363029
C           -3.23991271354995        0.60054262299181       -0.00359827750023
C           -3.20072308431312        1.99842168640652       -0.00313911504505
C           -1.87202540892454        2.39030114799032       -0.00191710978476
C           -1.03134275564511        1.25783300716509       -0.00149246971819
C            0.34592203512453        1.42824618966097       -0.00026506381096
C            1.44591689549849        0.58976194515452        0.00055629849273
C            2.75177784958847        1.16475797256288        0.00187204089317
C            3.02284704045622        2.53675031327664        0.00223204218438
N            3.23746504148376        3.66549638440592        0.00320635412015
C            3.71212616511300        0.14644331801084        0.00260216162483
C            3.04959154312846       -1.06771290232528        0.00166520583110
C            1.65251253071578       -0.85926799333958        0.00037957322021
C            0.77421625156338       -1.95345899856002       -0.00079904493611
C            1.43308123474627       -3.22094139180458       -0.00068174446228
N            1.91056357686385       -4.26238168012089       -0.00064359526475
C           -0.61008043827716       -2.12992834755345       -0.00211205395629
C           -1.71116215391072       -1.28472882011668       -0.00280264138431
C           -1.90760545677073        0.08577872879884       -0.00253154433081
H           -4.05937757408970        2.64403487504514       -0.00375038239808
H           -1.52110894110838        3.40609180595859       -0.00138252621148
H            0.62866257269926        2.47895761139795        0.00021440910901
H            4.77608096545511        0.29349719105593        0.00364746698458
H            3.52537704861282       -2.03088366057811        0.00186844631107
H           -0.88849313957259       -3.17972679577430       -0.00274191328988
H           -2.65146730299179       -1.83036974323070       -0.00376184000938
