28
 energy: -57.025936611092 gnorm: 0.000806036419 xtb: 6.6.1 (8d0f1dd)
N            5.15953329719266        0.93358714576463       -0.14000629813597
C            4.22183896542903        0.29593278759209        0.04198847584270
C            3.16189646034071       -0.57771119365817        0.30748027208974
C            3.35553991636702       -1.80108998050977        1.01640693333879
C            2.16737881321211       -2.47170117558114        1.11419078086933
C            1.16972359742593       -1.72569937971700        0.42404800136787
N            0.06705369370679       -2.26832618198664        0.03623805926057
C           -1.07192182094313       -1.97326405457706       -0.52411612025108
N           -1.61184050894170       -2.91849236978396       -1.31848037664816
C           -1.87238748431945       -0.83082511291720       -0.17975206538678
C           -3.25780036580012       -1.11086839488374       -0.17388403608251
N           -4.35930296246332       -1.42830925207548       -0.23725604075264
C           -1.45085709588365        0.46663728271022        0.09007791633355
C           -2.34338028374591        1.53375643292100        0.38352443066474
C           -3.67543086853166        1.47231697590729        0.80044088524115
N           -4.75798596496872        1.48837342696570        1.18310687203203
C           -1.61602128282928        2.71946522194028        0.19099745184581
N           -0.36771556753194        2.48462790275884       -0.17828436917410
C           -0.17190100659686        1.15142199259686       -0.19862410111430
C            1.16056671354872        0.74638607127493       -0.35561109086480
C            1.99744804199120        1.82845830783679       -0.76152118081432
N            2.65312726306800        2.67460976341717       -1.16678745304467
C            1.79559313920188       -0.44231086875610        0.00764502203844
H            4.30705917132569       -2.12213522472933        1.39919201263468
H            1.99764670770123       -3.42982408784454        1.56473825012048
H           -1.12521701349974       -3.79191128898153       -1.43118689959681
H           -2.57419510907766       -2.85453005797276       -1.60669393319329
H           -1.97377351507865        3.72401665608448        0.32019084957541
