27
 energy: -47.721516336565 gnorm: 0.000566151541 xtb: 6.6.1 (8d0f1dd)
N            4.09764458606683       -2.37962488104287       -0.00199640458286
C            3.04451995121026       -1.92571127737367       -0.00506670578643
C            1.71627288109063       -1.41058124858265       -0.00641765233794
C            0.77791165732725       -2.44628756677739       -0.00181840584146
C           -0.60653821286600       -2.51035305878889        0.00105406168398
C           -1.63548165058065       -1.58079506600131        0.00020892028693
C           -2.97893887855031       -2.00282787423690        0.00637485280214
C           -3.82870195410094       -0.90964375252639        0.00591575648313
C           -3.05711666873788        0.25841053553264       -0.00105909731093
C           -3.54605466283447        1.56666845476100       -0.00240929002823
N           -3.96886740143763        2.63531168204524       -0.00459306660938
C           -1.67428097714774       -0.09589163065983       -0.00526959810498
N           -0.79557137820279        0.86151736272041       -0.01285232599170
C            0.50605553041925        0.95441395722913       -0.01576216957959
C            1.06982081397389        2.23817137633020       -0.02094953751561
C            2.46637805224616        2.14015804067345       -0.01607480588875
N            3.34178833966828        3.16551023058595       -0.04904720006747
C            2.80534372745478        0.77209979183181       -0.01163538142060
C            1.65078168560565       -0.00917701041700       -0.01091930938927
H            1.24921051650328       -3.42508457012821        0.00055332547861
H           -0.97770114921750       -3.53173042885034        0.00571724567970
H           -3.29114519738814       -3.03203450166609        0.01098170370636
H           -4.90337912048816       -0.93975441661810        0.01030017040163
H            0.49059857906587        3.14113635706100       -0.02606698920352
H            3.00822652846061        4.10671603646533        0.05933468985294
H            4.32336489202541        2.98769995196789        0.06975383861274
H            3.81221638973415        0.39439171196560       -0.00860882842949
