29
 energy: -51.166327221841 gnorm: 0.000946004407 xtb: 6.6.1 (8d0f1dd)
N            4.72742893814069       -0.09139505701647       -1.05067257251686
C            3.73810354001136       -0.50788869113024       -0.63871980554308
C            2.54969239591402       -1.11925432168228       -0.22713266210210
C            2.42380481564577       -2.53403083005868       -0.12642201455485
C            1.13225636450559       -2.83067798430252        0.19086293184606
C            0.35606375617735       -1.62973130791227        0.22422695658141
C           -0.99777078382243       -1.71697390033714        0.39404957735604
C           -2.06624221347400       -0.82784148237811        0.20617797972439
C           -3.38405400663607       -1.25042005841185        0.21769418634558
C           -4.17688362031946       -0.12912797806910       -0.15984418758946
N           -5.51926709304013       -0.10041365973481       -0.25569052292450
N           -3.43178534220896        0.94540372395047       -0.38073789541779
C           -2.13396773155872        0.59957408413786       -0.15031850858863
C           -1.22961898528246        1.62662633642560       -0.21226715398597
C            0.14134153665540        1.81300776345820        0.06553212238522
N            0.49123808243937        3.13051176544414        0.16081164913082
C            1.19203787650801        0.88106247383380        0.17844473404298
C            2.42611567370214        1.47857810539066        0.54618547986351
N            3.35604747819307        2.00851745778163        0.96543530112308
C            1.30159352470851       -0.51975011019202        0.00528606311815
H            3.23176501639847       -3.22477777603620       -0.28435309261623
H            0.71930885913813       -3.81273222076127        0.32921327087121
H           -1.33916168914668       -2.72493335866201        0.61574841995943
H           -3.74923214580743       -2.23498846176748        0.43929125225464
H           -5.94691615688748        0.72443882285284       -0.63681522189798
H           -6.04633986168185       -0.95361792834764       -0.22125848999836
H           -1.73663534628166        2.55578046189843       -0.45663783713512
H            1.43662592051134        3.39485985524814        0.37546403246059
H           -0.22193208680114        3.83563211267940        0.17598003660808
