25
 energy: -43.481416179640 gnorm: 0.000961264771 xtb: 6.6.1 (8d0f1dd)
N            4.62665776244342        1.23273176288489        1.32693276760256
C            3.80906142885118        0.54096698464167        0.90797427013588
C            2.82676951969609       -0.32074390352455        0.41882907490787
C            2.93592222971501       -1.71647194154079        0.30288394206729
C            1.77168688308370       -2.22794492011952       -0.24268170339621
C            0.84471288593233       -1.18578707421946       -0.44354542655630
C           -0.50403012269046       -1.41551919569480       -0.62551808404967
C           -1.62012567465403       -0.60238825167656       -0.42856664876554
C           -2.88826291448853       -1.12331941856765       -0.21922219914864
C           -3.73862330442770       -0.11254144318641        0.30023310844401
N           -5.01978155780280       -0.30605843053069        0.68554357860900
C           -3.01637745426058        1.07555444258812        0.38788518874107
C           -1.72861189704491        0.86503616145730       -0.12824571316596
N           -0.96553846084313        1.85570817361098       -0.49038359536066
C            0.27742643229388        1.95401360043937       -0.87790829107726
N            1.33085781307696        1.30041049606688       -0.47908029637295
C            1.57191123887400        0.07615436505433       -0.11735958818325
H            3.80046684271066       -2.28511389960266        0.59577317380638
H            1.57405602420532       -3.26693009997469       -0.43413300018503
H           -0.75540095100203       -2.46549671972945       -0.75128948932955
H           -3.17775359586567       -2.14767018797646       -0.37104717595137
H           -5.49896996894639       -1.14388720811929        0.40618926833195
H           -5.57704656184426        0.48836274833106        0.94548057725914
H           -3.38992725703511        2.02528450152517        0.71704364969460
H            0.49797311512144        2.84876439517001       -1.45686314145670
