24
 energy: -43.750467890839 gnorm: 0.000273059095 xtb: 6.6.1 (8d0f1dd)
N            2.80545872894906        3.23405239651386        0.00068449833189
C            1.93693180270379        2.48505680327330        0.00052518139292
C            0.83995480600478        1.57659528608104        0.00078883074069
C           -0.37968599057994        2.24160598669982        0.00159931708526
C           -1.71175554866865        1.83990326949593        0.00233542711525
C           -2.35954824010425        0.62096283788591        0.00230036704797
C           -3.76247241083566        0.52687713498103        0.00280213661273
C           -4.08017590277879       -0.82321288494599        0.00233682241035
N           -3.00102262067483       -1.60991279964509        0.00163568192549
C           -1.91787016645089       -0.82591906664427        0.00159188869660
N           -0.76489958975636       -1.42720842796183        0.00112872795378
C            0.48514945604086       -1.08806775070431        0.00075011374472
N            1.36974041016902       -2.09442886974913        0.00022086276710
C            2.59954731547880       -1.57307642766655       -0.00042242645397
N            3.68471439221238       -2.35397826271623       -0.00034623284881
C            2.57109876855733       -0.15412707336125       -0.00032462090271
C            1.24030797844991        0.22340660481819        0.00039547154469
H           -0.26157517635899        3.32173134325667        0.00175050160017
H           -2.40189619955762        2.67981002393382        0.00289273878932
H           -4.45239194030114        1.34951121990262        0.00339484417395
H           -5.06253701567685       -1.26208457887663        0.00246948113355
H            3.55482631158436       -3.35039687929723       -0.00227141508824
H            4.60847594202049       -1.96172394562495       -0.00391716028534
H            3.43179061137318        0.48740402155129       -0.00073731248735
