26
 energy: -43.196498185564 gnorm: 0.000379709959 xtb: 6.6.1 (8d0f1dd)
N            4.04014536933556       -2.25865742119783        0.04689723860847
C            3.04310080937763       -1.69198087687100        0.03045728499146
C            1.77079592241452       -1.04987660150641        0.01127416729195
C            0.74053282402839       -1.99798749204681        0.00192266294929
C           -0.64057477704026       -1.93192923607029       -0.01080313433596
C           -1.57906336837677       -0.90724851084645       -0.01887452694012
C           -2.94617286863119       -1.20213278858745       -0.02177197018156
C           -3.69838597196511       -0.01697036857890       -0.02848674921004
N           -5.05280141908321        0.06644393979049       -0.08220733196372
C           -2.80427409207049        1.06009903263839       -0.03428816084562
C           -1.48550001686280        0.58054060118147       -0.02606660101351
N           -0.51335062444175        1.45553426738595       -0.02329407573489
C            0.78683131582600        1.41550953326748       -0.01069982538523
C            1.48800487640987        2.64402911176081       -0.00978429151583
C            2.84883415261147        2.40124143385555        0.00662877547118
C            3.06265592916789        1.02233283342272        0.01665318169022
C            1.83409832129177        0.34683013736006        0.00602783349765
H            1.11996675369707       -3.01598245333729        0.00721217159184
H           -1.10750204889156       -2.91337190566526       -0.01386387387615
H           -3.36149567638588       -2.19474790429235       -0.01805072625035
H           -5.59419213181315       -0.75584191481825        0.12110035107101
H           -5.48373845961469        0.95532835433680        0.10355958714986
H           -3.06348353168584        2.10149994748318       -0.04193033992806
H            1.00178919954033        3.60049630355491       -0.02053307339839
H            3.62361258190572        3.14675791971581        0.01114474781578
H            4.02635871815635        0.54548934136440        0.02968824925080
