26
 energy: -47.995252122909 gnorm: 0.000922391115 xtb: 6.6.1 (8d0f1dd)
N            3.75318555986309        2.98163231274067       -0.00029107941630
C            3.47047031411965        1.86799072832419        0.00050912856295
C            3.15019392197260        0.50787001922161        0.00050708878978
C            4.06132004535318       -0.55436046892819        0.00059483591862
C            3.35776144668723       -1.74861567928385        0.00077062848609
C            1.97247517746010       -1.50289171968693        0.00079761344289
C            1.06161660970567       -2.54573438575945        0.00099322485956
C           -0.33477215214209       -2.63261526291528        0.00109110503368
N           -1.32856988541979       -1.78248844951423        0.00099119291484
C           -1.43062699645689       -0.47858093163343        0.00069100354428
C           -2.72379874359976        0.09569611674524        0.00096208914755
C           -3.94034483110531       -0.58849204131867        0.00238122031282
N           -4.97985527067893       -1.07963129685366       -0.00092971302871
C           -2.62044138234857        1.51296506622894        0.00047684258215
N           -3.65966933183514        2.36143786725214        0.00053647450839
C           -1.25972911388280        1.84697100611965        0.00031265940357
C           -0.47915755008614        0.68698789197227        0.00049354644106
N            0.82685054124126        0.81515639720333        0.00045313646550
C            1.82295251557968       -0.01654802093450        0.00056173071497
H            5.13129669079990       -0.44876434341124        0.00058992550886
H            3.79933527816800       -2.72907931378755        0.00089980539271
H            1.53870358775929       -3.52124840667988        0.00112116706990
H           -0.70944779528834       -3.65550613669433        0.00129868311776
H           -4.60006270636577        2.00537614947196        0.00046404608738
H           -3.50704660063124        3.35396273139135        0.00007050353041
H           -0.85314486236877        2.84066851372788        0.00018908130902
