26
 energy: -48.001597186099 gnorm: 0.000534298864 xtb: 6.6.1 (8d0f1dd)
N           -4.77740137788498       -1.70990443892873        0.00503695419736
C           -3.69333266499052       -1.33739972947923        0.00626051704312
C           -2.32769899539875       -0.92697686974190        0.00524314917533
C           -1.47402297526152       -2.03485029803685        0.00385414516141
C           -0.10146315080105       -2.20549467527950        0.00307430326174
C            0.99205371634857       -1.34936757545476        0.00325276930834
N            2.20689060250606       -1.93783580817956        0.00219360830063
C            3.13704643663444       -0.98338927257266        0.00248560800328
N            4.44628230740245       -1.25886622772711        0.00095966447261
C            2.54999593710919        0.31854751253058        0.00385767843689
C            3.26350072719414        1.51277150856652        0.00500068050678
N            3.91535147912246        2.46025937304809        0.00475439035462
C            1.15368680950397        0.11976997292660        0.00434668615750
N            0.34956120812945        1.16151503056647        0.00581855291578
C           -0.92718935186106        1.34430373301535        0.00677446691211
C           -1.41022799272643        2.68194529008390        0.00840538143723
C           -2.78451419572811        2.67105673501912        0.00921791179915
C           -3.23552902762203        1.33898414231207        0.00812124592863
C           -2.15217834478840        0.46453491394800        0.00652811546882
H           -2.01940096602566       -2.97408351840299        0.00333707477087
H            0.22103288777455       -3.24101375426973        0.00205188512451
H            5.12386072335734       -0.51749653303210        0.00363718200782
H            4.74168142857875       -2.21878734062955        0.00203726967967
H           -0.76174331191777        3.53641311001246        0.00891192361044
H           -3.42564971174312        3.53389454101593        0.01051926634819
H           -4.26903019321195        1.04246054738959        0.00842831981719
