26
 energy: -47.200279076474 gnorm: 0.000758421425 xtb: 6.6.1 (8d0f1dd)
N            3.19009414258318       -3.01050292248213        1.27195716017331
C            2.87798115132575       -1.99871823291431        0.82441569492800
C            2.56523778698831       -0.74974376891318        0.28594607775364
C            3.52712511893573        0.13889164189416       -0.29271173564235
C            2.89529538395200        1.24704251150889       -0.75793851489590
C            1.50110976476768        1.18292428011845       -0.40064047237220
C            0.73874925137341        2.29864937020828       -0.37348439330814
C           -0.57096360988686        2.52999731620176        0.20328770350363
N           -0.75421331183310        3.79034535339860        0.69419692324870
N           -1.62580766908261        1.79369525081790        0.17824189025632
C           -1.89460403548289        0.51568247692826       -0.01598740247228
C           -3.13940499920509        0.02570018219534       -0.33450649525342
C           -3.06294916719374       -1.38809945997976       -0.18408607210244
N           -4.06476342566376       -2.25820123798116       -0.36107141897368
N           -1.85246154114140       -1.80711680066780        0.18749130757878
C           -1.05280017503283       -0.72822765902972        0.23900397973935
N            0.21566667891047       -0.91386413359755        0.39506437587246
C            1.28780757901963       -0.18790400115837        0.17452989723044
H            4.57920344573562       -0.07592589530324       -0.35201955561267
H            3.35019238026558        2.09048589740692       -1.24399250027284
H            1.20474685612345        3.20518188062388       -0.74732707011938
H           -1.61761669949286        3.97391906051115        1.17614643986276
H            0.03743505644419        4.37545846889368        0.89337901326738
H           -4.01276540894427        0.58868880950860       -0.59834367156257
H           -4.96733458391084       -1.95578319371556       -0.67775295445764
H           -3.88090095884462       -3.23311375657069       -0.20215320796976
