28
 energy: -53.043971399281 gnorm: 0.000314618146 xtb: 6.6.1 (8d0f1dd)
N            5.42134333423481       -1.87152113263182        0.35106656700531
C            4.64712690160371       -1.03040098669473        0.24267451120897
C            3.69933487192685       -0.00868162014626        0.11086706230264
C            3.98482829994820        1.35757360494189        0.02525945129411
C            2.78574644243329        2.04124367892909       -0.10163421639059
C            1.70690784292609        1.13330247318646       -0.09209157286883
C            0.40657592831733        1.60993550683993       -0.14163600288883
C           -0.85994378584161        1.05300458239128       -0.06243878843294
C           -1.98305374860763        1.93686128549845       -0.00990107571517
C           -1.90516235869185        3.33461854676107       -0.06184947679491
N           -1.82846174474112        4.47914312816182       -0.10915568668263
C           -3.15403249702681        1.20058312489841        0.12425917101374
C           -2.81341644552399       -0.15788879016003        0.12211829411157
C           -3.79723199600436       -1.14115091572322        0.31270348200359
N           -4.68143076276654       -1.84251310331209        0.52030342678255
C           -1.40290823945869       -0.30004772575247       -0.00407249020500
C           -0.80164683880320       -1.56469085791216       -0.12240592949086
C           -1.69867883960451       -2.65847850903098       -0.32503613206930
N           -2.30852828966391       -3.60045857074021       -0.55450720974189
C            0.50719679179171       -2.04798252290023       -0.09856206464649
C            1.77370015678898       -1.48908824536308        0.02632597602071
C            2.28726718901217       -0.20587017085547        0.03072240943303
H            4.96798505104572        1.78952364982088        0.05412524658645
H            2.68132182332766        3.10755818189114       -0.18478305498716
H            0.37166693683650        2.69512939684346       -0.21268551075560
H           -4.14888579752509        1.59484489369806        0.21660174194405
H            0.53909944298057       -3.13112104217872       -0.17173259266769
H            2.55270336438567       -2.24329476796045        0.10439161363118
