28
 energy: -52.240984710429 gnorm: 0.000587094687 xtb: 6.6.1 (8d0f1dd)
N            4.89084941163735        1.89182890198640        0.87581726682515
C            4.27352116097436        0.96528566045510        0.58966496846962
C            3.49652692600439       -0.14106264409951        0.23851156653895
C            3.95907870694515       -1.41609961344406       -0.04787124349160
C            2.86348501437143       -2.22019325157151       -0.37235427595616
C            1.68014452239541       -1.47938776917072       -0.29129283989215
C            0.44081288894387       -2.10195013798939       -0.39564169039586
C           -0.85358697537929       -1.69416918056579       -0.16573362480513
N           -1.77297289702886       -2.69612025409079       -0.07028225793665
C           -2.93039445607164       -2.16021235842969        0.22753980612930
C           -2.86495462681712       -0.74442863932897        0.26792959632289
C           -3.94411464832538        0.06772259447898        0.62830161211456
N           -4.85934770579866        0.66166856212291        0.98712473157325
C           -1.52240878439908       -0.40017258229400        0.01392072903728
C           -1.11668719770924        0.93607023054327       -0.20816594941067
C           -2.20037423347699        1.79068902288888       -0.54608539526523
N           -3.02035959523161        2.50611105914787       -0.91226153953531
C            0.12131741829959        1.59942792648744       -0.14870534446505
N            0.09966245802045        2.94914891659268       -0.32357698299124
C            1.42045898624434        1.09757686171652        0.13443527580841
C            2.06222620740444       -0.10543516074635        0.06098126816856
H            4.98719426850123       -1.72744025229935       -0.02017792959187
H            2.91433601292657       -3.26356474865095       -0.62309181701461
H            0.49485759778173       -3.16916642651399       -0.58524134098176
H           -3.80147461397180       -2.76221428032716        0.41133248024917
H            0.94980306678662        3.48162479811201       -0.28564414670869
H           -0.76605710431447        3.43492670294036       -0.48428247272102
H            2.10304096088665        1.90918671284708        0.38251907332937
