26
 energy: -48.011588436503 gnorm: 0.000811300390 xtb: 6.6.1 (8d0f1dd)
N            2.57339492354467        3.47785826783670       -0.73889530036509
C            2.49467922790945        2.37492050973878       -0.42411255351659
C            2.40959603813725        1.03224901681640       -0.05213144436634
C            3.45223669472309        0.28997433207597        0.55640885496619
C            3.01474220877839       -0.98675680934788        0.80799299901496
C            1.69194811963000       -1.12804579684234        0.30978038422231
N            1.17204602000216       -2.30150356554259        0.11351516165323
C           -0.01064991130755       -2.71492574131860       -0.30263034716081
N           -0.01535045591667       -3.84824920836513       -1.04092562510955
N           -1.18988064329831       -2.29242998703800        0.11429326405181
C           -1.70062846515208       -1.11490806679747        0.30977328543582
C           -3.02198849091814       -0.96303995646697        0.80884129155819
C           -3.44974521723640        0.31678283016220        0.55639795405727
C           -2.40146613351028        1.05060371758391       -0.05284271672364
C           -2.47558436837773        2.39360986603319       -0.42592352638028
N           -2.54944654642074        3.49733571769533       -0.73933885976817
C           -1.25981792017260        0.22463752806149       -0.16059257867137
C            0.00290413244708        0.73877109689118       -0.41273759464933
C            1.26164211509399        0.21502552249395       -0.16041473540522
H            4.42614785382046        0.68738420820567        0.77834018249154
H            3.58243961382346       -1.79081195791754        1.23400131191683
H           -0.88491213941126       -4.33613572188465       -1.16688493667632
H            0.85024419945566       -4.34282635213540       -1.16753469380755
H           -3.59565202942763       -1.76238306777437        1.23582302419901
H           -4.42063083791109        0.72169582156704        0.77809042689108
H            0.00689901279585        1.79129316886781       -0.68767303755888
