29
 energy: -55.972904383149 gnorm: 0.000507498774 xtb: 6.6.1 (8d0f1dd)
N           -3.01677705977430       -3.83746888848965        0.06753627227827
C           -2.16842424576761       -3.06702334940910        0.05199555279690
C           -1.04573538262498       -2.18728444046142        0.03872000721475
C            0.17178161962429       -2.89359184196188        0.04770224812711
C            1.49248620051981       -2.53984047220000        0.02137073486458
C            2.19899693922797       -1.32585306027682       -0.00753413422157
C            3.58269818616562       -1.30669370768346       -0.03816120152335
C            3.98254465061231        0.05607582029134       -0.03803971671685
N            5.22949998065685        0.53798921190639       -0.06800621131114
N            2.92562678408513        0.86884905372871       -0.00430161029743
C            1.81394208358135        0.10666767020947        0.00940250983529
C            0.61650930297044        0.81353496768884        0.03392892235748
C            0.86498372165593        2.21799840822220        0.08218096261611
N            1.06661271840452        3.34433980393786        0.14110096539895
C           -0.74394228477410        0.45106359695416        0.01211160143500
C           -1.78241857376671        1.38940167055579       -0.01228989565569
C           -1.82164719427016        2.78249037125644       -0.03888244930796
N           -2.05354903917352        3.90881098753401       -0.06702955666481
C           -3.01248927241768        0.63874540915354       -0.02830385172605
N           -4.24048547424959        1.15783055380204       -0.05902325118615
N           -2.77689174449588       -0.66342943518517       -0.00989546248160
C           -1.43805440892033       -0.85268483219220        0.01205315869786
H            0.00910888776077       -3.96719007483717        0.07205438356648
H            2.16809270032055       -3.38978974508114        0.02367725647940
H            4.23879235294449       -2.15529870570715       -0.05646389994911
H            5.35504305946493        1.53504176998774       -0.05868410101193
H            6.02516859486557       -0.07268761178007       -0.09094909589699
H           -5.03067797974324        0.53717110215348       -0.06844650219395
H           -4.36977244948196        2.15485356968301       -0.07134483892428
