29
 energy: -55.967171969049 gnorm: 0.000758512957 xtb: 6.6.1 (8d0f1dd)
N            2.80898678290691        3.44368135558512        0.04844996879841
C            1.97379050273175        2.65815554853194        0.03285206861229
C            0.83401247204928        1.80215262361517        0.02042853927599
C           -0.33308038695787        2.59833207889743        0.02583767993977
C           -1.68433752657800        2.36594650752472        0.02195564118313
C           -2.48712544784826        1.21830382255107        0.01747459268390
C           -3.86651536231286        1.27809197148539        0.01624880399972
C           -4.33917733677720       -0.06369844464520        0.01319280278001
N           -5.61399729333025       -0.46554434729196        0.01175568128600
N           -3.33662564758354       -0.94527433290589        0.01204694987967
C           -2.18451381166481       -0.25671084945667        0.01416926866262
N           -1.09757095898009       -0.95967922810883        0.01208067815484
C            0.19208547320217       -0.75659958579699        0.00758673590032
C            1.02573757444745       -1.89466000194963        0.00162566779432
C            0.62042119071696       -3.23170880986491        0.00280267016692
N            0.37894260818084       -4.35503574046314       -0.00049128523396
C            2.38367215544689       -1.49381300998369       -0.00794310468053
N            3.44677025886546       -2.30418024301885       -0.01842275364976
C            2.41629430763401       -0.07849469149997       -0.00464654217034
C            3.65467480363781        0.57065706333414       -0.01732485456491
N            4.74857219937304        0.92573528783315       -0.03083184429814
C            1.09588100624592        0.43450413313800        0.00672315166381
H           -0.08530650474245        3.65623734773331        0.03376913148629
H           -2.27710942657134        3.27624083987562        0.02431758659570
H           -4.47930000804193        2.15971634533043        0.01781994043678
H           -6.37053478524119        0.19390170751088        0.01166083690969
H           -5.80132302849225       -1.45300606239357        0.00953943055782
H            4.37503563583096       -1.91492934003848       -0.02634090024350
H            3.32136102115114       -3.30204979663263       -0.02073865972283
