27
 energy: -52.517885738878 gnorm: 0.000856979376 xtb: 6.6.1 (8d0f1dd)
N           -3.70587562794855        2.48857905820362        0.63429046599759
C           -2.74625441426400        1.91993100968208        0.37221537869601
C           -1.48207183949667        1.30961264019789        0.12313573973131
C           -0.47648454686791        2.26681254660188        0.06947287233202
C            0.90268659134465        2.24723694183560       -0.10114074192407
C            1.88937904010351        1.27948440457065       -0.10151896564423
N            3.15263246671260        1.73544462428085       -0.22381085474213
C            3.97934143024245        0.69291827707998       -0.11872743606515
N            5.30614975990814        0.83186979742544       -0.19831327367138
C            3.26194981729367       -0.52015732323165        0.07691890855334
C            1.91759735101461       -0.19012905625849        0.07664124880516
C            0.89827190772709       -1.16341918128404        0.16088125161946
C            1.39352791319689       -2.49416682972600        0.31556662569807
N            1.84528528791532       -3.53637686300336        0.46254292752767
C           -0.48055347742390       -1.13475100614356        0.05097524386190
N           -1.06817642424922       -2.36601481001995       -0.00585714111416
C           -2.35462518064561       -2.19640789575581       -0.15691659280568
C           -2.71325212500399       -0.82033150560716       -0.15885995109925
C           -4.02699581366608       -0.38478958874352       -0.35877444282918
N           -5.12642307496842       -0.12964680874044       -0.57010182087974
C           -1.51802935082711       -0.09363904468314       -0.02094018118678
H           -0.87022967535325        3.27553757647493        0.15773085886245
H            1.34334701624328        3.23233695814936       -0.21111207413906
H            5.68999175552534        1.74931325381725       -0.34167922689850
H            5.91492213177000        0.03964100426450       -0.10209681146584
H            3.69200914200843       -1.49635769794460        0.18527290300125
H           -3.02445419789124       -3.02967991604213       -0.26375213642091
