30
 energy: -56.481371721080 gnorm: 0.000921257980 xtb: 6.6.1 (8d0f1dd)
N            5.43438603044355       -0.67833717861030        0.90398775169790
C            4.50586934843903       -0.09559652046841        0.56131839075544
C            3.44020093896875        0.74502630537413        0.21505192106317
C            3.60463613678239        2.14496867409001        0.13019647515918
C            2.38326598062987        2.71004885202250       -0.14468429445647
C            1.38438381749258        1.70274103780829       -0.19130497000229
C            0.06632990409760        2.07753122980956       -0.33310824862388
C           -1.18100149620063        1.46247812890446       -0.21807232117360
C           -2.32800399032613        2.26214447900681       -0.20706731482270
C           -3.46322695319854        1.47460092802813        0.03380733536063
N           -4.73541390473572        1.89026241359668        0.13919106839271
C           -3.02986329939942        0.12823512714022        0.13789819378595
C           -3.95364040652984       -0.87806469785099        0.43507787750319
N           -4.83092430812045       -1.56446185789257        0.71974883342878
C           -1.62467536775769        0.07349131075354       -0.03751823092812
C           -0.94161659202056       -1.14113741223948       -0.13292212093835
C           -1.76683161493741       -2.30607251257126       -0.17492321683914
N           -2.33914616079633       -3.29512820089109       -0.25669854379518
C            0.39921284835870       -1.52540273058688       -0.24564182865567
C            1.64161456046224       -0.90135344515225       -0.14857327763911
C            2.67303730232163       -1.88259517499522       -0.26845033245347
N            3.41790549498325       -2.73502306296040       -0.44262150898697
C            2.08084236298260        0.42144102949178       -0.00458196522629
H            4.53943845644950        2.65698088117577        0.26407722941237
H            2.18934867723073        3.75945109227526       -0.26834312664169
H           -0.03555867345882        3.15023727236203       -0.47774051233873
H           -2.33750326309118        3.32890314501735       -0.33568845648216
H           -4.96203101760008        2.86706396731885        0.09235566036572
H           -5.45865842151080        1.22605410840130        0.35754892309779
H            0.49702880774099       -2.60074681465790       -0.38118931971908
