27
 energy: -52.520356246616 gnorm: 0.000690102030 xtb: 6.6.1 (8d0f1dd)
N            4.68623953602987       -2.25488940020808       -0.00120982445358
C            3.61424108427736       -1.85001305071094       -0.00159517487826
C            2.26120071012760       -1.39868169685189       -0.00117002681085
C            1.37505800566551       -2.48077034691904       -0.00144171701458
C           -0.00188032913077       -2.61298667166297       -0.00149052780453
C           -1.06957787220529       -1.72459531613711       -0.00127381612352
N           -2.29968224825571       -2.27367052537404       -0.00140704399549
C           -3.20156235458768       -1.29051549687783       -0.00104068813580
N           -4.51589360920907       -1.52379633203562       -0.00100629492650
C           -2.57328917858520       -0.00539819752304       -0.00059594123561
C           -3.26413164856432        1.20419625330206        0.00011382527741
N           -3.91564192155021        2.15088641828503       -0.00077876975128
C           -1.18683350375510       -0.24771362131326       -0.00086997577237
N           -0.34598407674763        0.76336012932824       -0.00064393711321
C            0.93371460784759        0.90542634606741       -0.00067226516153
C            1.46416848672528        2.24088110473137       -0.00027856491190
C            0.69197239417908        3.40816232176909        0.00042271413425
N            0.08778667267682        4.38400152904280       -0.00053918527452
C            2.85118335080955        2.17771379956872       -0.00035842481229
C            3.24547601173449        0.83719815597382       -0.00065190322981
C            2.12884536235228       -0.00142361812104       -0.00082513890327
H            1.89362371075179       -3.43503746302621       -0.00173463906030
H           -0.35430976833549       -3.63857500412782       -0.00173570147036
H           -5.16907185546481       -0.75995559875358       -0.00075404852970
H           -4.84297042040114       -2.47396523114636       -0.00132825340612
H            3.51298190519407        3.02464426169204       -0.00013278687990
H            4.26708814462116        0.50262007732832       -0.00067057345642
