27
 energy: -52.514490024164 gnorm: 0.000819906129 xtb: 6.6.1 (8d0f1dd)
N            3.71699755300642       -2.81150294885978        0.00072806692488
C            3.45925059817082       -1.69280841969470       -0.00239685367363
C            3.19243861374793       -0.31922149842337       -0.00298371491522
C            4.16146982327816        0.69811348396160       -0.00419131206753
C            3.52383631066362        1.92394004500327       -0.00534297543306
C            2.12324267360830        1.74941862041445       -0.00477033811552
C            1.27071272124668        2.83406523846226       -0.00543131901124
C           -0.12632005053247        2.98985140942762       -0.00503349432125
N           -1.15489318684311        2.19153451542946       -0.00408336477583
C           -1.32663188800400        0.88996306909366       -0.00307578460572
C           -2.65025840753449        0.39426413810052       -0.00203021504553
C           -3.82108587680434        1.15795710286847       -0.00076817463252
N           -4.81824301341979        1.72851109196165       -0.00444346781225
C           -2.63986067208266       -1.02381235672941       -0.00123335978636
N           -3.71479462043321       -1.81963399690173       -0.00020917020172
C           -1.28981154036910       -1.44316331078218       -0.00118720419050
C           -0.90326168897230       -2.78673902531586        0.00064364179070
N           -0.66885104122251       -3.91113533402583       -0.00073627107966
C           -0.43461457875160       -0.31251248409791       -0.00238736838705
N            0.85654635314209       -0.50676017040746       -0.00236025115290
C            1.89975962462891        0.26960629809275       -0.00318324921683
H            5.22362432140749        0.53279402002240       -0.00438196073379
H            4.01288112587591        2.88136227173596       -0.00658921203976
H            1.79277921820627        3.78609789296882       -0.00647881610451
H           -0.44824558090965        4.03050350266957       -0.00576332367018
H           -3.60186267617688       -2.81941486778987        0.00045637798940
H           -4.63920090972651       -1.42283783478440       -0.00020975913239
