28
 energy: -46.651389839168 gnorm: 0.000304466702 xtb: 6.6.1 (8d0f1dd)
N           -3.21736276487531        3.10971799275307       -0.03685348807902
C           -2.35633696369341        2.35106856703624       -0.01886960565458
C           -1.24471446692302        1.46193123832674       -0.00179117650201
C           -0.05034961826349        2.17953938178102        0.00194917611827
C            1.29758000670590        1.85875361623030        0.01268622588334
C            2.03607060677272        0.68837641580244        0.01862980702593
N            3.37888318654409        0.84021180874630        0.01679847204710
C            3.92313067772762       -0.37982649804339        0.01927209721815
N            5.26491127311287       -0.55079415069292        0.06899475442535
C            2.93873332440979       -1.38933817458531        0.02245230124076
C            1.70236588359491       -0.74641274063855        0.02144550691741
C            0.50588131374618       -1.46559184907746        0.02303963214338
C           -0.83596642592170       -1.15972644848956        0.01626698555945
C           -1.78450651443479       -2.20339088748302        0.01366652032380
C           -3.06981919859109       -1.67260908697727        0.00189558690536
N           -4.23897345532940       -2.36305215655319        0.04861252187604
C           -2.95534896772699       -0.26621523046011       -0.00122094201667
C           -1.61508151007333        0.10149877562538        0.00562201478193
H           -0.22302080036204        3.25275988350763       -0.00430180425380
H            1.95532721006756        2.72144663204463        0.01495383050650
H            5.83016518793264        0.26511017604592       -0.09197441973113
H            5.65122607716551       -1.44650865183738       -0.17136917457672
H            3.11573061807729       -2.44812803235168        0.02570925439817
H            0.68345333882181       -2.53896604553982        0.03001681764752
H           -1.54053363573383       -3.24999758027110        0.01967759919942
H           -4.22234062735064       -3.34770921358802       -0.15320130203273
H           -5.08934283561924       -1.86949382142664       -0.16133597394300
H           -3.78911581728062        0.41172165101574       -0.00836368742820
