24
 energy: -43.770101950695 gnorm: 0.000890461843 xtb: 6.6.1 (8d0f1dd)
N           -4.89885046166288        1.12609071437546        0.95663210392655
C           -4.02351970969778        0.43803914754702        0.66862985410183
C           -2.95510299854098       -0.38844088566352        0.31657618762099
C           -3.00695878266114       -1.76830912529407        0.13830866783890
C           -1.74275031630827       -2.22196384914654       -0.22504916604188
C           -0.83969528295628       -1.15185633923927       -0.28178350963259
C            0.51472524019752       -1.38314748823769       -0.47668563727231
C            1.63507880514369       -0.58150555305480       -0.34058127455382
N            2.85293148887233       -1.12930828514398       -0.24027633171628
C            3.64273656728547       -0.13645290026327        0.21192565779678
N            4.92410358737727       -0.33485665129058        0.52303056030824
N            3.05639317989184        1.07077966711217        0.33473719150243
C            1.79888166589800        0.87904292962371       -0.06040217793754
N            1.02859395228573        1.88021234632770       -0.38568416034263
C           -0.22289726996602        2.11307242970689       -0.53765028035546
C           -1.37507314544864        1.41026153973689       -0.10136577793328
C           -1.62696996535022        0.07228360156858        0.02590068851226
H           -3.88466607903857       -2.37607037618150        0.26579867729010
H           -1.48259348271554       -3.24702810311024       -0.41390750390227
H            0.77336439307611       -2.43140696130183       -0.59001737304689
H            5.48287921438826        0.45061477590221        0.80304447081243
H            5.34075407892025       -1.22821503752064        0.33310851008148
H           -0.42456002369547        3.07720654059383       -1.00207780191401
H           -2.23620450859199        2.05044686625788        0.06953153095343
