30
 energy: -55.701086805011 gnorm: 0.000583965176 xtb: 6.6.1 (8d0f1dd)
N           -5.50728206626300        0.90703842632578        1.05947725280088
C           -4.62639817986459        0.23228428074565        0.75925981813775
C           -3.55945235641725       -0.58902952151449        0.39195294461859
C           -3.59234479392762       -1.98154611048712        0.22901089160154
C           -2.34288722426581       -2.42357481547902       -0.17376464982428
C           -1.44875177825277       -1.33800503493703       -0.23962439189277
C           -0.08768409824527       -1.52396464573578       -0.35127601342677
C            1.01687545242424       -0.69167425362581       -0.17959072133913
C            2.31325369546760       -1.25494739815600       -0.13084284655285
C            2.63912268395698       -2.59904557908234       -0.30653244742363
N            2.94616157979157       -3.69845364619140       -0.45163526911875
C            3.27171317071614       -0.24570164626297        0.15923078615988
N            4.59451784529853       -0.43441111927531        0.28918086747894
C            2.57517534712852        0.96614747355087        0.27640781033202
C            3.16895618119824        2.19981763767773        0.53535524139459
N            3.67476970279434        3.21175496084191        0.74601746873247
C            1.17971572658491        0.74776729503497        0.04497617647806
C            0.33706999921368        1.82822909496727       -0.06900819639626
C           -1.04730233025099        1.96193997240991       -0.34168587045300
N           -1.45178245316450        3.17479585538914       -0.80453256951199
N           -2.04509176874443        1.14853367691186       -0.09491918466725
C           -2.25894424929092       -0.12085712716018        0.04979102917061
H           -4.45944049228112       -2.59631246862933        0.39096995255675
H           -2.07427350182491       -3.44537387794459       -0.36982038673523
H            0.19323807898979       -2.56503351613807       -0.49565660355407
H            4.98790840188242       -1.35241723854208        0.17889938727644
H            5.19666993817111        0.34013723577275        0.50582723220066
H            0.84055093005455        2.78415589421134        0.04604309864917
H           -0.81775725321085        3.95289653499684       -0.84095133933723
H           -2.44162651006836        3.34995993522382       -0.84442044455489
