22
 energy: -40.309565770373 gnorm: 0.000847122859 xtb: 6.6.1 (8d0f1dd)
N            4.26678144572126       -1.30313848657476        1.21570273280484
C            3.45888309333702       -0.58782753905978        0.82194021711502
C            2.48085780629325        0.29791504148866        0.36134489508435
C            2.61325111501980        1.67354134842701        0.20254319476371
C            1.41815086845071        2.20609861899370       -0.29294634333027
C            0.47112709423271        1.19184536690854       -0.44285098781317
C           -0.89200123870898        1.43515428713799       -0.55571056262743
C           -1.98229926941354        0.62173468173043       -0.29953254171304
N           -3.16528367443690        1.19822464165179       -0.03891294856999
C           -3.95156613137732        0.27088973253482        0.51908970282747
C           -3.34550314543119       -0.97460288179730        0.61904462737270
C           -2.08144847942600       -0.84161944375939        0.01909287781474
N           -1.35961793698219       -1.84288218608599       -0.40574535144427
C           -0.14826338330076       -1.95006632578316       -0.85314027447438
N            0.92081266470584       -1.30227522251127       -0.45300130417132
C            1.18686557158239       -0.08621942283323       -0.12865260152143
H            3.50035329170521        2.23566068613227        0.43336701418942
H            1.23807251706932        3.24843830064389       -0.48175088895152
H           -1.16374898104362        2.48113163600814       -0.65104405117191
H           -4.94612652164999        0.53623529394306        0.83121768119389
H           -3.77001670639186       -1.88021859702457        1.00233576435097
H            0.05375135264473       -2.82678840707065       -1.46305505682834
