29
 energy: -51.977614763849 gnorm: 0.000593848459 xtb: 6.6.1 (8d0f1dd)
N            5.66898630012391        0.71760078976279        0.01985731128915
C            4.69978083430374        0.09980387330411        0.01358545209540
C            3.52132935767640       -0.65127674389382        0.00751089296097
C            3.44889018752598       -2.04789921447219        0.00587195802632
C            2.11260073168839       -2.41282098326641       -0.00056879672538
C            1.29635996297558       -1.26460920395576       -0.00259024178187
C           -0.08338596181862       -1.40311378572597       -0.00728517872624
C           -1.17088450420024       -0.54649192513512       -0.00803999793738
C           -2.47969096062813       -1.10061874592012       -0.00903116416552
C           -2.80100839860584       -2.45689639059359       -0.00382011765659
N           -3.10118189697883       -3.56767074807397        0.00472210719043
C           -3.43708466294802       -0.05786107405433       -0.00839533187679
N           -4.77339150785794       -0.21526284921263       -0.03125723930056
C           -2.73172525030712        1.15134484824949       -0.00785629234985
C           -1.35273442768599        0.90880876461138       -0.00727821774617
C           -0.44308996228403        1.98551567129387       -0.00564786139320
C           -1.07557420389228        3.26396069439927       -0.00579347056261
N           -1.53602395535227        4.31381377063087       -0.00419611273911
C            0.94126294689762        2.12886722803116       -0.00292000503126
C            2.02891681836851        1.26249843046274        0.00090480709590
C            2.20061061225736       -0.10838172215150        0.00210550233256
H            4.29350922253681       -2.71228853477998        0.00910023369373
H            1.74099912052953       -3.42116194306618       -0.00331681288910
H           -0.38792603965094       -2.44781449884917       -0.00986586603665
H           -5.17333048659457       -1.13476056445635        0.03581613385558
H           -5.37565885903400        0.58463617376192        0.04216868109201
H           -3.19065962567865        2.12260181524611       -0.00772425282239
H            1.24238792898496        3.17266970708997       -0.00287123919622
H            2.97823798264863        1.79226290416346        0.00389312470488
