33
 energy: -63.653358516686 gnorm: 0.000823295969 xtb: 6.6.1 (8d0f1dd)
N            5.13231564665682       -1.02764571464415        0.89252484951524
C            4.18882474164954       -0.43866001846514        0.59700447868324
C            3.18438725574661        0.44068505488125        0.19008365593381
C            3.52144230390845        1.74584948333557       -0.23618547162323
N            4.75820726254265        2.26286265848474       -0.24453903598667
C            2.33544071795912        2.39030073598398       -0.63819988289709
C            1.25236735943187        1.53354271964650       -0.47896156869867
C           -0.04418193310511        2.03984842381503       -0.53798458983567
C           -1.29059384322557        1.54134888286707       -0.23012280046866
N           -2.28110964469462        2.45130740180842       -0.05821617317609
C           -3.39031553914756        1.79096853985955        0.24016277498526
N           -4.54598138941593        2.39426915903574        0.53488497074138
C           -3.18269711829904        0.36696681355608        0.19495569848826
C           -4.19012697190110       -0.54683231069561        0.49662754458035
N           -5.08081844297935       -1.20563730726304        0.80542426192869
C           -1.83183404089660        0.18081560347288       -0.10021450376376
C           -1.28602904890254       -1.07857122306047       -0.45184161349530
C           -2.27488604174941       -1.98882139719061       -0.90566657327159
N           -3.04188979992850       -2.72507799877146       -1.34079645473737
C            0.00380943200741       -1.61091182877132       -0.39408254154251
N            0.15413095210117       -2.89888287841107       -0.80699387502872
C            1.21992496000809       -1.02097971694508        0.11543656854136
C            2.01882500244523       -2.00491668860393        0.75550539944793
N            2.54731473298980       -2.84111441371368        1.33889571357428
C            1.79238496316568        0.23224091557289       -0.01513518159090
H            5.53183454041905        1.70845438166131        0.08163986817278
H            4.92625942125245        3.18691806181454       -0.59890483016220
H            2.27250349425205        3.41062500467638       -0.96717042459638
H           -0.08238830465424        3.10607654966340       -0.73480089004342
H           -4.58630744359355        3.39759159849772        0.54408950557828
H           -5.36040926228156        1.84867231206834        0.75567131971782
H           -0.66132414845515       -3.45621277851516       -1.00494462169859
H            1.02684635038282       -3.37715083015054       -0.65876052517909
