29
 energy: -51.955355383299 gnorm: 0.000883612312 xtb: 6.6.1 (8d0f1dd)
N            4.48075049480007       -0.76029291229807        1.13905530769764
C            3.65973236573719       -0.08993154272050        0.69579836868580
C            2.68318788567636        0.80362934405959        0.24161133781491
C            2.89429324766871        2.19699361790413        0.15281797366037
C            1.71715340324650        2.78795684434069       -0.24008242802625
C            0.69344819634060        1.80810256022965       -0.32138185650226
C           -0.61215851604772        2.19134860785725       -0.55000350048925
C           -1.84007798075498        1.59109131553813       -0.30314269609476
C           -3.01100149744611        2.35844373055616       -0.29735482788623
C           -4.05863881803730        1.61747713151209        0.26459467548251
C           -3.58409336604445        0.36983249990091        0.60203975923632
C           -2.21699954225340        0.26497355197288        0.21388736854740
C           -1.58590498962371       -0.96885204745371        0.18439073996285
C           -2.37511674327249       -2.03276698240366        0.70467795418788
N           -2.96921223747971       -2.90822077683764        1.14951417448063
C           -0.34224422363949       -1.44439052901476       -0.34720039993423
N           -0.37298177882719       -2.73118856384231       -0.80041702600867
C            0.90513336369194       -0.79787469866018       -0.35023877136114
C            1.97806898587274       -1.65311607467491       -0.72534895316249
N            2.79353489226566       -2.35691116760439       -1.12218061863955
C            1.33310405014451        0.51739791133263       -0.06837835809663
H            3.82692551609323        2.68760629438426        0.36097360103384
H            1.55961549869015        3.83881083021786       -0.39828342271726
H           -0.70608173302637        3.23485613405528       -0.83767397015498
H           -3.07534023902205        3.37785044132482       -0.63115818465016
H           -5.06316171894693        1.96901807263309        0.41113728291891
H           -4.15886643590343       -0.42620883825584        1.03681831025606
H           -1.19924706259118       -3.28902400853609       -0.66556713076479
H            0.48959099810250       -3.21542132470872       -0.98866408346744
