27
 energy: -47.740295300850 gnorm: 0.000469612554 xtb: 6.6.1 (8d0f1dd)
N            3.80700845391457        2.96326642017238        0.00135126520127
C            3.51260823656561        1.85226630075065        0.00167822985945
C            3.17774621585529        0.49526088097705        0.00220927352710
C            4.10796744406764       -0.56216125551170        0.00588488874774
C            3.41268371815452       -1.74902328759507        0.00461974842471
C            2.01659970441273       -1.49856281168916        0.00026629759536
C            1.13768216895451       -2.56328988004946       -0.00323516981465
C           -0.24931935923304       -2.72910435995888       -0.00699657868532
C           -1.33165740650802       -1.87802824922867       -0.00613150462319
C           -1.50096908184357       -0.49043253650502       -0.00416047347398
C           -2.79169839104443        0.07766693107200       -0.00272719445590
C           -4.02048623540011       -0.57389444180527        0.00207500609826
N           -5.05322124896406       -1.08144504288955        0.00780229455420
C           -2.61217281579529        1.49340910727848       -0.00428944861555
N           -3.58045616808378        2.41899719018516       -0.01252731987585
N           -1.31914140345509        1.81014754568358       -0.00601971941052
C           -0.60149605220700        0.66584661296969       -0.00558364875725
C            0.77750244119994        0.82483855648762       -0.00424300170716
C            1.86207811908698       -0.03203433599829       -0.00096220653835
H            5.17595005517841       -0.44166542206242        0.00896677083421
H            3.84974682819490       -2.73085639353616        0.00657725081111
H            1.66269387881615       -3.51489168172990       -0.00276147876706
H           -0.53959569018280       -3.77436476781809       -0.01002347934711
H           -2.28740807072530       -2.39637205252522       -0.00748882659676
H           -3.32388235455508        3.38945729764975        0.01172099741381
H           -4.54719427607106        2.15034762814958        0.02159609597772
H            1.04636903236746        1.87798999552693       -0.00490467827624
