30
 energy: -60.485181242308 gnorm: 0.000870841161 xtb: 6.6.1 (8d0f1dd)
N            5.07306356570788       -0.04997538660519        1.82892980954910
C            4.15940167943473       -0.45546191405745        1.26198738642797
C            3.06242285251961       -1.03224028448729        0.61685564478819
C            2.97681955268292       -2.38521302682238        0.27558382169802
C            1.73017975440056       -2.65352626344137       -0.27840826406754
C            0.94861772879123       -1.48981367802440       -0.26991491858152
N           -0.34284003784859       -1.57404200206317       -0.43846978777639
C           -1.33974636474115       -0.75587506268626       -0.27571773923208
C           -2.65654940270879       -1.23184908061296       -0.06010188171185
C           -3.08574521492860       -2.55729552922447       -0.12239780714173
N           -3.49454546003230       -3.63084196883386       -0.16570788679828
C           -3.48777044536478       -0.14329144642232        0.29900360496937
N           -4.78253302342744       -0.21842616033823        0.61822449082676
C           -2.71558141915618        1.05022804794412        0.25104590464600
C           -3.21695113930221        2.32762437941612        0.50570014680611
N           -3.66038391501755        3.36555074957130        0.72239119549468
C           -1.40751870007087        0.73214098588904       -0.14876920676232
N           -0.53325038849530        1.62980725381218       -0.50761156394015
C            0.73382300085332        1.71555414723073       -0.74282814958969
N            1.12025845186931        2.69368971987587       -1.58703562743962
C            1.80369094368048        0.96758714528653       -0.08166081624964
C            2.92270656753637        1.78806203028346        0.19625353000861
N            3.77523893608240        2.54087791777775        0.35357711259974
C            1.86705030671523       -0.37798429553379        0.17763239913460
H            3.75870437582183       -3.10343395859611        0.44508065775930
H            1.36389179173241       -3.61309905053465       -0.58730729093752
H           -5.29091234868175        0.61153814328641        0.87346384240736
H           -5.25621551220580       -1.10609094575131        0.60265030595198
H            0.41280885973143        3.31554565901792       -1.94320930310352
H            2.08629939487914        2.96992529054693       -1.64748994058423
