23
 energy: -44.812786097114 gnorm: 0.000927971790 xtb: 6.6.1 (8d0f1dd)
N            3.05535349641624        2.47481017805468        0.28322991419167
C            2.10685545531275        1.84803818600155        0.14484023276670
C            0.86929944480896        1.14738007547010        0.01560340636688
C           -0.20824373245351        2.04345136516916        0.08822761666145
C           -1.58636617248603        1.93760970330411        0.10884351317441
C           -2.49045707522179        0.88125186694313        0.13111708387953
C           -3.87162889539819        1.05264390015520        0.04401482632763
C           -4.41880070614776       -0.20845973165768       -0.23780623659744
N           -3.50401881897081       -1.15936156531854       -0.31754904958454
C           -2.30763333674639       -0.60128736735293       -0.03840688557890
N           -1.28550601849447       -1.36776783176428        0.10799264013120
C           -0.00474079370066       -1.32737963753856        0.20170097496190
N            0.65847560588670       -2.47345526160315        0.47651371833414
C            1.93684406277816       -2.26909547793647        0.26287810193097
C            2.22452521272458       -0.92948909671315       -0.10293513106799
C            3.49145098704464       -0.47967704011036       -0.48735028285602
N            4.54747887448221       -0.18675082426120       -0.82950170453004
C            0.99498839478724       -0.24116983769086       -0.07724891142503
H            0.13518139711297        3.07356321470187        0.12854206020188
H           -2.08479936348882        2.90209883230315        0.06248312937229
H           -4.41323283010129        1.97005864474541        0.17209528927521
H           -5.45687298946847       -0.44397687071093       -0.39129946526368
H            2.65239607342219       -3.06465189399443        0.36734112562144
