28
 energy: -47.454083972871 gnorm: 0.000473768730 xtb: 6.6.1 (8d0f1dd)
N           -1.62135639724973       -4.16586132117710        0.00601072299719
C           -1.01754662002381       -3.19089496322507        0.00023189272906
C           -0.20471947014596       -2.01982061334484       -0.00325036713111
C            1.14275585388204       -2.36771266523140        0.00188496731236
C            2.34720680924620       -1.67228776078288        0.00509423449732
C            2.72728130570341       -0.34481400105563        0.00410017435171
C            4.09974056182500       -0.00632022408761        0.01077501137383
C            4.24140342149769        1.36980171675615        0.00700625000184
C            2.97159292638778        1.94436991627376       -0.00258819427729
C            1.99408539393250        0.93658694400518       -0.00422988258417
C            0.65165339373067        1.27619383161936       -0.01233739657970
C           -0.55135026906952        0.58882127305979       -0.01342636144243
C           -1.76529389411585        1.33040623662095       -0.01775311342209
C           -1.88426190630954        2.71806792171729       -0.01044838155595
N           -2.02104607291943        3.86103692264654        0.00373594753735
C           -2.86477143099418        0.43982505442833       -0.01645469656532
N           -4.16765752854400        0.79449415456819       -0.06157557832769
C           -2.34669039255735       -0.85774172696597       -0.01174470230680
C           -0.94469652156254       -0.82039586806917       -0.00963546684313
H            1.28334209928725       -3.44532984143745        0.00510130698056
H            3.20490986308338       -2.33949525027185        0.01021281816861
H            4.90058408683004       -0.72328943207004        0.01778219086840
H            5.17198736319971        1.90773499733483        0.01085432690104
H            2.75928176643247        2.99802786996123       -0.00769832723524
H            0.50336021995276        2.35444498236717       -0.01814856170848
H           -4.41986645509555        1.75927250367887        0.06591152064723
H           -4.87353354878531        0.09442040323619        0.08124406291246
H           -2.94287299331817       -1.75150261065496       -0.01016662279963
