25
 energy: -43.481018811455 gnorm: 0.000577343987 xtb: 6.6.1 (8d0f1dd)
N            2.68499427363739       -3.35751893154644        0.01715889542910
C            2.55443830916554       -2.21608930199826        0.01210266858083
C            2.46387977549921       -0.82110434911909        0.00751526950680
C            3.57140072592232        0.05637283247789        0.01265131437864
C            3.11054633261360        1.34909971062701        0.00505673289159
C            1.68998538942734        1.36586285221072       -0.00347137201688
C            1.01649204903823        2.56334871499255       -0.00301481223332
C           -0.33289368595945        2.95004214775469       -0.00553645575452
C           -1.52374159278431        2.27024652234354       -0.00134783057284
C           -1.88826325118722        0.91352217738765        0.00108290298775
C           -3.21392649426706        0.52119830612221        0.00637814035181
C           -3.22833763932309       -0.90155577911978       -0.01141654819320
N           -4.31254846758386       -1.69203860780876       -0.03640487585964
N           -1.99950879683499       -1.40712324568973       -0.02706566460418
C           -1.12562060072913       -0.37944694627791       -0.01634615751432
N            0.12787390944838       -0.70320229365647       -0.01472576227975
C            1.26893481378135       -0.06726626723793       -0.00415046861912
H            4.59944537661347       -0.25835261266112        0.02053676043030
H            3.72209626105014        2.23379896316498        0.00535946848053
H            1.68977341006468        3.41716157261310        0.00150922876983
H           -0.45418146255786        4.02827571942569       -0.00892384655154
H           -2.39572695398711        2.91938075425157       -0.00282566875552
H           -4.07919856253350        1.15782521343276        0.02074687979197
H           -5.23417747367979       -1.31170360973181        0.07554883173818
H           -4.17141784183445       -2.68565857805701        0.01083371391739
