26
 energy: -48.791760484230 gnorm: 0.000460409601 xtb: 6.6.1 (8d0f1dd)
N           -4.68251894421161       -2.15714502591249       -1.03868710620291
C           -4.09285157175772       -1.23257468741563       -0.69866959700177
C           -3.38984790550127       -0.09398236277424       -0.29141434597597
C           -3.91076485678755        1.19053721018477       -0.14538382005375
C           -2.89756311389089        2.04449657056040        0.28769560343494
C           -1.68699779103122        1.34212126761921        0.37976255820537
C           -0.46388840572080        1.98872874743931        0.47832388766970
C            0.84480786412752        1.59273890913149        0.25207610972155
C            1.84859994321583        2.57460508371714        0.09725944127346
C            3.03402866115149        1.98363945494142       -0.29366074391280
C            2.84015286391295        0.59342275488303       -0.35035229787914
C            3.83439082850962       -0.29166606358385       -0.78717160701065
N            4.68628276372228       -0.93364995849884       -1.21205036164760
C            1.50227671920412        0.29229188005258        0.02293454150007
C            1.09617065757153       -1.00486439760004        0.34606714296026
C            2.11446931843345       -1.98886176838935        0.47384197001394
N            2.86855876500070       -2.82732398868779        0.67804858330690
C           -0.17275293920142       -1.56414843957348        0.61889131586081
N           -1.37019121410706       -1.17714868832432        0.31393423727150
C           -2.00751671004556       -0.07314791295072        0.09245975352225
H           -4.93155747061276        1.46790845884490       -0.33501405246721
H           -3.01641228046844        3.09302593894998        0.49290678069280
H           -0.56165139821522        3.06300085517094        0.61058712402850
H            1.68838012457001        3.62930642025866        0.22505546368839
H            3.95657985450636        2.48352087821565       -0.52322801901498
H           -0.14863983527349       -2.58159235628794        1.00478455799884
