26
 energy: -52.781860025294 gnorm: 0.000821266258 xtb: 6.6.1 (8d0f1dd)
N           -4.76149455654755       -2.18350374374842        0.25112846151436
C           -4.10187450741409       -1.26014354902200        0.07750118062198
C           -3.33815871296555       -0.10922938070314       -0.14073648044093
C           -3.81785746380703        1.08501791540698       -0.73574114209533
C           -2.80396967296785        2.01193350546248       -0.81398285408102
C           -1.63363347275773        1.46886553813661       -0.23550123473433
N           -0.55957629597726        2.15744056193759       -0.04448166672486
C            0.67392151469784        1.98282092488900        0.34253439402214
N            1.24432755026670        3.03482557901173        0.96631651844991
C            1.52987016893271        0.87087017408237       -0.00023227081603
C            2.87765400688957        1.25646199813251       -0.19005058075526
N            3.94862296818026        1.65314287024099       -0.30911859133945
C            1.23340046614645       -0.48260917192620       -0.05608023184838
C            2.20314861103199       -1.49997118393746       -0.22574423625962
C            3.46069485725999       -1.42511437286346       -0.82760309727712
N            4.48665440015736       -1.42390084677202       -1.34413404580744
C            1.64209161517799       -2.66874728024866        0.33604122969852
N            0.41196425978405       -2.49522224005323        0.77160780656404
C            0.03445273153348       -1.23266035433142        0.47924106949910
N           -1.22359988994586       -0.94842217651253        0.52560649620948
C           -1.97048285804687        0.04897308086693        0.15600237497013
H           -4.83183446833082        1.22689487301340       -1.06424854062333
H           -2.88012430530300        3.01462407083269       -1.18852880618724
H            2.23944397229701        3.06790899747573        1.11438079952214
H            0.70283797597534        3.87505025988003        1.08364848700901
H            2.12473943603500       -3.62631778685351        0.41536123840844
