25
 energy: -44.282616014036 gnorm: 0.000548964930 xtb: 6.6.1 (8d0f1dd)
N            4.66426829565475        1.89065902358650       -0.00243313712146
C            3.93654971848352        1.00150644974076       -0.00388102360206
C            3.04464390653617       -0.07601738205371       -0.00107500221273
C            3.40227203783654       -1.42394504100741        0.00064675328848
C            2.23795021521070       -2.18147038609329        0.00207888919437
C            1.11184299667821       -1.34076520302176        0.00149290482405
C           -0.16353805415477       -1.88854291007229        0.00266515453962
C           -1.44982607242506       -1.38576207463258        0.00263184914115
N           -2.43490875146059       -2.31524010571045        0.00422730707282
C           -3.59663713902818       -1.67988243515111        0.00405935612799
C           -3.43626412770373       -0.29225705177969        0.00231447761401
C           -2.05618902262851       -0.04528521682636        0.00126601542105
C           -1.52773848986194        1.25901195090252       -0.00065183794465
C           -2.53142243128963        2.27383714413030       -0.00099828265196
N           -3.31210540834706        3.11257383318979       -0.00243524704388
C           -0.25203022996763        1.80754186741523       -0.00192745154815
C            1.04433130457774        1.29430938701948       -0.00181760064726
C            1.61707364793533        0.03884825835219       -0.00040029695846
H            4.40892142008563       -1.79985972664285        0.00056743282329
H            2.19433335726512       -3.25502080112498        0.00333214878454
H           -0.17399774414873       -2.97452351452401        0.00395394874154
H           -4.52038692142253       -2.22941992677227        0.00519925682821
H           -4.21866024614354        0.44177271043411        0.00182681813784
H           -0.26956764839597        2.89367300965091       -0.00326522091118
H            1.79384114391416        2.08235234289097       -0.00312645519721
