27
 energy: -46.934194802181 gnorm: 0.000418632021 xtb: 6.6.1 (8d0f1dd)
N            4.00344464408166       -1.61650532370904       -1.26644009546045
C            3.21389030624972       -0.88456987694402       -0.85900149669773
C            2.30812877577976        0.05037181672707       -0.36680675272111
C            2.62800684149963        1.39261796205268       -0.05391532671742
N            3.82969133897447        1.97148956479196       -0.25970271853204
C            1.48030833654288        2.01381050552971        0.46326767190505
C            0.40793436694006        1.11708892085506        0.44995369144868
C           -0.90716472221133        1.53080828173882        0.63885707544936
C           -2.11617084817577        0.96060313972835        0.28380792995709
C           -3.29003180772052        1.70850179180417        0.14654249759213
C           -4.23346070589555        0.96508714745444       -0.57176831659529
C           -3.71550004375265       -0.27998674475635       -0.87762491714062
C           -2.43361707869529       -0.38848562140695       -0.29616007735972
N           -1.85838966306036       -1.54039230305434       -0.13025711662700
C           -0.68842403832980       -1.90999681304602        0.36044639500007
N           -0.68318652299199       -3.09865575620222        1.02244011930964
N            0.49907014068651       -1.39905461814538        0.11554528429917
C            0.96075902251591       -0.18823442832403        0.00114822360712
H            4.59965684668342        1.40329059291402       -0.56749640727413
H            4.02179573480356        2.87903769195072        0.12433252130346
H            1.42320970272186        3.04421618318321        0.76422031059107
H           -0.99069208767688        2.56853121214390        0.95162946820995
H           -3.41771689051047        2.72146166615546        0.48268982143951
H           -5.21335342212567        1.31560206365756       -0.84484673259450
H           -4.21553481469849       -1.07967880078003       -1.38850514793593
H           -1.51036281177322       -3.66738846189631        0.96021330512602
H            0.20498598843638       -3.55838141052513        1.13218183081732
