26
 energy: -47.222291044426 gnorm: 0.000795160065 xtb: 6.6.1 (8d0f1dd)
N           -3.30150485135705       -3.09859339864392       -0.00532911514701
C           -2.40873173195981       -2.37758246835568       -0.00698907316198
C           -1.27402054052679       -1.51914602831019       -0.00543816930618
C           -0.09003535462351       -2.25161923541109       -0.00356449323364
C            1.26109365651400       -1.95024204483847        0.00049764802030
C            2.00381880779905       -0.78002554318419        0.00215087195484
N            3.34434267322327       -0.89066863612024        0.00394041281174
C            3.80022944737305        0.36794024696457        0.00341258562997
N            5.10209148532079        0.66557299989022        0.01078681688506
N            2.84905291407010        1.32726234254180        0.00156780013188
C            1.68789965487225        0.66859509376539        0.00081165721877
C            0.51341358605428        1.41454174225006       -0.00099608735696
C           -0.82917007856780        1.11161380460185       -0.00292355725083
N           -1.67017919905593        2.16372661010652       -0.00191128038296
C           -2.91965947505672        1.68861445931282       -0.00329327408042
N           -3.98038958706742        2.50814762269677       -0.01196776382168
C           -2.94098051573258        0.27313496606787       -0.00573697850929
C           -1.62146107305607       -0.14972483073320       -0.00499760781452
H           -0.27807831211177       -3.32240482952376       -0.00492806978263
H            1.91075817265921       -2.81879749175308        0.00214658480701
H            5.77698022536952       -0.07618784647397       -0.01473518565371
H            5.38527974392088        1.62759951262823       -0.01752880321276
H            0.69971995713704        2.48289055015624       -0.00055127401185
H           -3.82552688320248        3.49973655088122        0.02128973229124
H           -4.91366887344445        2.14264371987006        0.02993136823439
H           -3.82045790195107       -0.34086223468580       -0.00765767075878
