27
 energy: -52.524285845468 gnorm: 0.000963892387 xtb: 6.6.1 (8d0f1dd)
N            3.72499122438022       -2.45727053329688       -0.51975177559903
C            2.77394697649318       -1.85782903319250       -0.29869666832626
C            1.49245726312431       -1.25022596539894       -0.12203559450972
C            0.51637890392127       -2.26534784569812       -0.14470319137778
C           -0.85070503409949       -2.31491118062258       -0.02453700149517
C           -1.85875036549693       -1.35388737398452        0.04508093137998
N           -3.12269379861020       -1.77981478473771        0.15905446967104
C           -3.87966364581610       -0.66867808201311        0.13171804525705
N           -5.20653363638477       -0.69115773061844        0.22702288465389
N           -3.18707253924432        0.47911157124280       -0.00809738555310
C           -1.90287819314176        0.11292506283815       -0.05427783737782
C           -0.94314190998695        1.13526174490426       -0.17098054609002
C           -1.58664846508322        2.40023872761409       -0.32622017731118
N           -2.09837641662564        3.41428887203480       -0.47469930777833
C            0.44298746463731        1.17833984940751       -0.09727712342334
C            1.10457287426542        2.42705204358937       -0.07404358723280
C            2.45612898334444        2.23729677877221        0.10938040478253
C            2.71633401448415        0.85437873248147        0.15936452910037
C            4.00444328373991        0.37249791438022        0.42839380258854
N            5.08488555451158        0.10484815826998        0.71017434664217
C            1.50079565601508        0.13927676275003        0.00850531684643
H            0.96748918946239       -3.24855272064440       -0.24333833298625
H           -1.26952199034641       -3.31456875897138        0.00604933841915
H           -5.67911290847659       -1.56910170592084        0.34402156921715
H           -5.71310810699362        0.17540347546084        0.20333831812609
H            0.61135336800169        3.37741653025296       -0.15010134764474
H            3.20404239212518        3.00228843190077        0.20626034502127
