25
 energy: -47.490655913883 gnorm: 0.000694563650 xtb: 6.6.1 (8d0f1dd)
N            3.40434921266627        2.88865695908337       -0.01100667318097
C            2.48651218106154        2.20205779534380       -0.00833318078015
C            1.29296278553824        1.42449260147619       -0.00649440476720
C            0.13265535745988        2.21785962034129       -0.00292594093958
C           -1.21313175326658        1.95371822232249        0.00015092945457
C           -1.97834716490906        0.78185171569879        0.00082795050172
N           -3.29905036893593        0.90947525625375        0.00385045047683
C           -3.78471907157995       -0.36121081612468        0.00346097868538
N           -5.09574580194192       -0.59942750034163        0.00585159172955
N           -2.87100338568411       -1.32819374483010        0.00046805494148
C           -1.68240794513358       -0.69885959745845       -0.00131902313308
N           -0.61265041493209       -1.43032943989695       -0.00408633241974
C            0.67662429368705       -1.18247789243876       -0.00667314361017
C            1.58600465338201       -2.23312510996612       -0.00910053585139
C            2.87481840997141       -1.66333081437348       -0.01196714242286
N            4.05079380974698       -2.29814964216360       -0.01467383117385
N            2.82843175370261       -0.31721414548719       -0.01134781436743
C            1.54403486287045        0.05312501929731       -0.00808446168538
H            0.36766599028750        3.27853077864144       -0.00256519893648
H           -1.85161522978503        2.83069975622414        0.00247611407312
H           -5.73642162785960        0.17322592410509        0.00840616767085
H           -5.42141569165994       -1.54878394454526        0.00576413591340
H            1.33813026457761       -3.27447098383033       -0.00892891953086
H            4.09934044829638       -3.30054988496973       -0.01661395991261
H            4.89236950733986       -1.74844652876142       -0.01754061713512
