27
 energy: -51.726888375089 gnorm: 0.000452564572 xtb: 6.6.1 (8d0f1dd)
N            1.88517231533151       -3.95621780819556        0.00598848576120
C            2.09825531650074       -2.82757442252249        0.03744529679663
C            2.40388493109046       -1.46551888280149        0.09255534683846
C            3.69657694012232       -0.93450165031927        0.34538812302248
C            3.63029319988021        0.43085758968343        0.35269639526820
C            2.28988178569644        0.85196553071871        0.11231526852350
C            1.93084283700433        2.16642485755729        0.11821466555953
C            0.66222608363587        2.77918845022679       -0.12477464500844
N            0.69631840301342        4.03747074091059       -0.63900370496398
N           -0.52397991875592        2.37303091178103        0.22303509515616
C           -1.21787580759796        1.29781490626905        0.35374750236145
N           -2.46387960033196        1.29604392226083        0.81881151167844
C           -3.05213775573038        0.17447246343240        0.36023882256902
N           -4.34011230844591       -0.07544360491308        0.59988022639293
C           -2.16632700465715       -0.66521266909908       -0.37387810966346
C           -2.53630423474470       -1.85246911344621       -0.99307432609386
N           -2.92204305578482       -2.81095492033183       -1.49968707133981
C           -0.89399452171536       -0.06393206687829       -0.25389240524502
N            0.23785792350401       -0.66810801435728       -0.33493034370462
C            1.49500862043700       -0.40704639693493       -0.08193995761498
H            4.57444820154061       -1.53521245063001        0.50151746753184
H            4.45307080295437        1.10605060614065        0.49965341031824
H            2.74179904191524        2.87269043429470        0.26046218949007
H           -0.17841722833581        4.49073074626439       -0.83890970815207
H            1.54411201603551        4.41508039507636       -1.02105766963435
H           -4.85767356188918        0.55619051783671        1.18540177218679
H           -4.76968209537136       -0.91031476571294        0.24091679427051
