28
 energy: -46.650076844633 gnorm: 0.000536007217 xtb: 6.6.1 (8d0f1dd)
N            3.38959887090111        2.89297734514568       -0.00628133263144
C            2.48379479109243        2.18955433715020        0.00265618348354
C            1.30172155682839        1.39554397673624        0.00946603352848
C            0.13676225295292        2.17513941580231        0.00532865314124
C           -1.21390514448222        1.91095288750947        0.00534751370687
C           -2.02342469518073        0.77183291793181        0.00724527887049
C           -3.40759014240076        0.91264576101134       -0.00228695773235
C           -4.02357973914111       -0.35504650714878       -0.00200728523153
N           -5.36466961487370       -0.58201072876353        0.04418927872471
C           -3.01718257527370       -1.31580311567143        0.01121688783698
C           -1.75645779661015       -0.68559635182545        0.01604925678541
C           -0.61034628211563       -1.44741911947883        0.02235442585115
C            0.76212371821018       -1.19249345742332        0.02018562357017
C            1.69501180312190       -2.22973563394607        0.01948469077839
C            2.97241039797999       -1.63456668615577        0.01613027883011
N            4.17029878381694       -2.25787949114507        0.06411054556609
N            2.89015051112874       -0.30032219105675        0.01373156380379
C            1.58359104142398        0.02983057100327        0.01635623237854
H            0.36568041060464        3.23744112484642        0.00153508494195
H           -1.81510599920070        2.81641780998041        0.00192843591643
H           -3.93428050764617        1.85008583058201       -0.00974923635958
H           -5.69549022163030       -1.50796978283963       -0.16658749556008
H           -5.98092056606057        0.17838598456462       -0.18664798182467
H           -3.16960867886502       -2.37974173821869        0.01611207755879
H           -0.82063526983159       -2.51490690642785        0.02804716487694
H            1.48575252216848       -3.28238708702486        0.02229032427411
H            4.98245129654620       -1.68306588836291       -0.08244899461294
H            4.22849310073647       -3.23364096857484       -0.16736211977159
