22
 energy: -40.310406864182 gnorm: 0.000873088058 xtb: 6.6.1 (8d0f1dd)
N            3.71056847335445       -2.16498261525142        0.00825926311716
C            2.69861043623987       -1.62904031228398        0.00710018594722
C            1.39735251457345       -1.04234511361932        0.00461706841538
C            0.37283248874520       -1.99062690183599        0.00503615698588
C           -1.00914534878200       -1.92615211684736        0.00367134472478
C           -1.96411102350731       -0.91452361091731        0.00122423755350
C           -3.33408885939749       -1.21651909593882        0.00040009439712
C           -4.02081175908962       -0.00387704212965       -0.00218520823111
N           -3.19909073214890        1.03888852532079       -0.00305394791931
C           -1.93350201532663        0.57142494555234       -0.00108880797879
C           -0.93380688141998        1.51825550622348       -0.00154204021169
C            0.45423333191280        1.44670238703016        0.00002277747081
N            1.14918976864955        2.59586890833195       -0.00092774175873
C            2.43277762278040        2.23868807943945        0.00097200534242
N            2.66380989946495        0.93323505560448        0.00310116857215
C            1.44538970212986        0.35458028374911        0.00264348307829
H            0.75599278079728       -3.00680060454495        0.00689109473212
H           -1.47090960106456       -2.90999004434618        0.00476129865957
H           -3.76765231557236       -2.19810127650097        0.00154085685377
H           -5.08580445246754        0.14444450828487       -0.00345634327619
H           -1.30776813949948        2.53686268024101       -0.00348384091160
H            3.22866766532808        2.95946481743830        0.00080589153726
