26
 energy: -47.216508114473 gnorm: 0.000669174503 xtb: 6.6.1 (8d0f1dd)
N           -4.69517345576980       -1.69154259588163        0.01254057696989
C           -3.78068769333033       -0.99409370844565        0.01160996046044
C           -2.73204771692928       -0.07448328433003        0.01147793417997
C           -2.92038709317063        1.33148130886226        0.01388960722584
N           -4.11313966867209        1.94896698032361        0.01162825011650
C           -1.65750063012340        1.93653427601861        0.01605016614053
C           -0.65280002656243        0.96685164885564        0.01421273267713
C            0.68114686095324        1.33089706697163        0.00685790020258
C            1.87105778931626        0.61744869319254       -0.00220811347105
N            3.02327424597005        1.30567755515895       -0.00792852367656
C            3.98855646362118        0.37040109766850       -0.01723149121757
N            5.28777376680736        0.68303648958008       -0.03893447361180
N            3.55695597987523       -0.90354784915375       -0.01794829765973
C            2.22004571203207       -0.82120591747627       -0.00814387544864
C            1.48606747758093       -2.00397190515046        0.00236269304750
C            0.13188353374521       -2.29958459674778        0.02120271048261
N           -0.99158032698645       -1.62031137912324        0.02050931348494
C           -1.34860038939823       -0.36744023939633        0.01399822012347
H           -4.17221052238847        2.95097554088660        0.02517960692994
H           -4.95800387232219        1.40432074622514        0.01886162470072
H           -1.48564004791530        2.99799175419346        0.01814678245772
H            0.85612907480677        2.40260890250515        0.00470120226378
H            5.96767020994256       -0.05285737052248        0.01408377739506
H            5.56119838901471        1.64631517577044        0.02226265788955
H            2.13510262574876       -2.87221959016240       -0.00123139082308
H           -0.08032020134524       -3.36905271092307        0.03620849796029
