31
 energy: -60.206743021356 gnorm: 0.000722738906 xtb: 6.6.1 (8d0f1dd)
N            4.48878569106629       -1.95177646499247       -0.07017972994383
C            3.83398924741631       -1.01036916325218       -0.14145398895976
C            3.14189341291346        0.19417712699674       -0.29965879673630
C            3.73131622182788        1.31099340477348       -0.94408998057078
C            2.83109383001695        2.34808597455217       -0.99227448380713
C            1.63504422577194        1.94360912544191       -0.35372617999731
N            0.76609829533902        2.81820752630016        0.04811303169816
C           -0.43671265361269        2.84583529340817        0.55780217928961
N           -0.72706570465912        3.95574779229402        1.27792689843661
C           -1.51282926574130        1.96841266505205        0.26625486405383
C           -1.54954751504386        0.62346503005101       -0.00820184766363
C           -2.80415278510396       -0.00446651193040       -0.28024598451239
C           -4.00963421344722        0.66362280566670       -0.48590589834043
N           -5.00882590716495        1.20844500527713       -0.65401933553257
C           -2.64488288909447       -1.39669898387884       -0.26567167208356
N           -3.58637482378131       -2.32560145259701       -0.47446755146247
C           -1.27221346023253       -1.66717305061241        0.01934140185050
C           -0.81930786649668       -2.98988332116316        0.01244421961496
N           -0.61296070400124       -4.11836885478270       -0.06435845531506
C           -0.56265068444850       -0.45608893910069        0.14544395383608
C            0.83533762223335       -0.44864642428656        0.33514207496144
C            1.35356663624080       -1.66230266235205        0.86686184363440
N            1.74112614091034       -2.56262339007441        1.46143828763768
C            1.79667394410217        0.50377751609426       -0.00197171377417
H            4.73672018389555        1.31812314636569       -1.32455019324638
H            3.00017501947434        3.33119128404065       -1.38574229961339
H           -1.67139018021992        4.15778952075522        1.55290904603603
H           -0.02455030927509        4.66875518729988        1.37060867276296
H           -2.48324959700569        2.45484590923433        0.25465367143271
H           -4.52792782514534       -2.05509989502992       -0.69898843045027
H           -3.34341905063675       -3.30128399664941       -0.43957657632656
