26
 energy: -47.204259377890 gnorm: 0.000434221757 xtb: 6.6.1 (8d0f1dd)
N            3.37468168196080        3.02714902002505       -0.47935959951904
C            2.46096089267356        2.34911588690412       -0.32647375037168
C            1.31006218314522        1.53282912435009       -0.16054294112343
C            0.16349388579168        2.29465843665234        0.09260048319465
C           -1.17310331915441        2.02474634970734        0.31071842286721
C           -1.96174254143083        0.87715080869390        0.26072676072659
C           -3.34852736790889        0.91305687493154        0.27813418312889
C           -3.79241177262033       -0.36955852579227       -0.11564673584884
N           -5.06061433679403       -0.76202946922825       -0.30831215818182
N           -2.77534625739484       -1.21766830117879       -0.33220593441712
C           -1.64185489526935       -0.56121247836865       -0.06065855275700
N           -0.54351675476564       -1.24146481050600        0.00464866010069
C            0.73183194376304       -1.05040960737357        0.08651168080080
N            1.51475474333258       -2.11213447246895        0.30924889471779
C            2.78343714254717       -1.72776889858327        0.10918877665650
N            3.79424482150930       -2.59512261163565        0.25314708172344
C            2.88538263862678       -0.35548373075471       -0.22134608389235
C            1.59945413653633        0.15814505351325       -0.17715160663450
H            0.38848463405953        3.35789082078340        0.12073993894864
H           -1.76796358496594        2.92131725440420        0.46299792497260
H           -3.97396530190885        1.75411788648136        0.50906655435794
H           -5.82799095747532       -0.18171527278133       -0.02182090986588
H           -5.22275738074089       -1.72478678941294       -0.54636779446580
H            4.73075810165703       -2.33984158381275       -0.00222968404597
H            3.57138803566318       -3.55298225882162        0.45921536462934
H            3.79414316486313        0.17566142757207       -0.42909642970154
