26
 energy: -43.206256265249 gnorm: 0.000912092957 xtb: 6.6.1 (8d0f1dd)
N           -4.57909929421547       -0.95201126091125        0.69523306354318
C           -3.70622540446229       -0.23221708598690        0.48428046705450
C           -2.63267052272950        0.61988905428050        0.22907161847958
C           -2.69569217879703        2.00316183039945        0.07405437337231
C           -1.41378455665395        2.47238092563183       -0.18231312305212
C           -0.49669136271295        1.40721994723200       -0.18373288132470
C            0.86752697601523        1.65082397289515       -0.32240043861179
C            1.99691310810332        0.87569157058439       -0.17531147926599
C            3.27735828835206        1.45666585762868       -0.10604072790010
C            4.20302564432781        0.50186446506622        0.29978282799970
C            3.55931027193922       -0.71786726245732        0.45682766586695
C            2.19717767615056       -0.57055037076832        0.12926516116491
N            1.44635180061392       -1.63247102690978        0.01905876078521
C            0.18854528338640       -1.91121415062746       -0.21131124099831
N           -0.00634348753716       -3.21150599493685       -0.59576854868651
C           -0.99594867657269       -1.15597244277109       -0.01520024123191
C           -1.27379341198305        0.18654235389335        0.05020191712217
H           -3.58951007315034        2.59619921508273        0.14263492065961
H           -1.14982701645223        3.50282228900110       -0.33731757916360
H            1.08825343835757        2.70329285753807       -0.48495181488340
H            3.48920224988734        2.49140574092342       -0.30624903299573
H            5.25137676713619        0.68026974191477        0.45959322699199
H            4.01047568447786       -1.64814175190716        0.74305568852503
H           -0.91951684582055       -3.62540063052842       -0.53788425984635
H            0.79266027235761       -3.82033287308999       -0.55389492738913
H           -1.87593845131603       -1.78413678678105        0.09907925298585
