27
 energy: -48.516115909260 gnorm: 0.000901140774 xtb: 6.6.1 (8d0f1dd)
N           -4.53303757458356       -1.49232305366002        0.52147726712190
C           -3.42063437706547       -1.30516344787037        0.32103657203490
C           -2.01860639503200       -1.15065469236786        0.10056211112113
C           -1.40610586262036       -2.39385946620945       -0.03786677680821
C           -0.10521442447802       -2.80921695979941       -0.28197119025813
C            1.14110254073459       -2.20883011384512       -0.26248229224823
C            2.29170836340544       -3.00949287245094       -0.44168647198127
C            3.43048380378827       -2.25591067973375       -0.20622191126159
C            3.04018112902119       -0.96249485169693        0.12190415761607
C            1.63327180703913       -0.86052347665919        0.06591994833266
C            1.00659426683497        0.38244901604401        0.19357587667299
C            1.90184918993212        1.39920557259811        0.64814336839055
N            2.61769738473100        2.14932976168414        1.13527611464909
C           -0.29977597715237        0.84358073186447       -0.02232716672171
C           -0.56815150355164        2.23386631927468       -0.18352920778867
C            0.33834548223337        3.27944735540633       -0.40177239462132
N            0.99207251623297        4.18761426126903       -0.66054396369805
C           -1.95521892152549        2.43228035317429       -0.26783332967996
C           -2.57566256160921        1.20766681519147       -0.12562541868808
C           -1.60522645800845        0.18626955972568       -0.01635329026319
H           -2.11586483418327       -3.21430811451964        0.00932058912725
H           -0.04063492545708       -3.87397661491254       -0.48603752044696
H            2.26889186030774       -4.05277965989555       -0.69865017208225
H            4.44410073040697       -2.60633503442084       -0.26358150422245
H            3.70801497884480       -0.15160081486671        0.34482195527560
H           -2.43322530805256        3.38160601315645       -0.42051868578114
H           -3.63721849469246        1.04384449392006       -0.13313678179087
