27
 energy: -47.732201265820 gnorm: 0.000738516810 xtb: 6.6.1 (8d0f1dd)
N           -5.15636679809693        1.48019594605088       -0.02139133214631
C           -4.32986333684615        0.68116402222876       -0.01463645599591
C           -3.33303256922669       -0.29825262990334       -0.00537659022104
C           -3.57510012414049       -1.69091594133747       -0.00005737773269
C           -2.36631267557910       -2.33577236216978        0.00723232263203
C           -1.30591303438164       -1.38446115585640        0.00678956324359
C           -0.00543190744932       -1.82291926369854        0.01017888154987
C            1.25306210327540       -1.21078478091304        0.01051419117821
C            2.42439785250212       -1.96271608164531        0.00956108242298
C            3.50302795302076       -1.04664086868003        0.01213528499437
N            4.81589584644783       -1.32772988646509        0.04470941331903
N            3.06418203120453        0.21538993460114        0.01486461395059
C            1.71792204462224        0.18667137585309        0.01341369649933
C            1.08521189484297        1.43092358620969        0.00993192149315
C            2.02160617490279        2.50658090658735        0.01271463226662
N            2.72079165297897        3.41422501371213        0.01249140803772
C           -0.24250081044171        1.87524864791195        0.00151691712311
C           -1.47616285250496        1.25794533894217       -0.00308148728036
C           -1.94109752577427       -0.05651687292325       -0.00059511141181
H           -4.54993149249929       -2.14332349945250       -0.00177916811295
H           -2.21904273814619       -3.40024545350929        0.01235587033332
H            0.07395479758098       -2.90760750488346        0.01274696073207
H            2.50277301174855       -3.03289243363568        0.00796336199480
H            5.14273795849393       -2.26600085768587       -0.09785087590783
H            5.46005681577497       -0.56076668129759       -0.03936478678304
H           -0.30683231826056        2.95924550463409       -0.00148593963654
H           -2.29892205334873        1.96877365532548       -0.00933225064230
