27
 energy: -48.534414740700 gnorm: 0.000594483679 xtb: 6.6.1 (8d0f1dd)
N            3.93081438794692        2.37611496215123        0.00083792559949
C            3.53381849317069        1.29869296985563        0.00166424655500
C            3.06577309528046       -0.02068512675789        0.00065725808464
C            3.88149577934177       -1.16070279554803        0.00036632400819
C            3.06231532923377       -2.27331848662484       -0.00013419020148
C            1.70432296314048       -1.88213482388727       -0.00025714803913
C            0.71686835663807       -2.85786323773413       -0.00068114726278
C           -0.67142371080740       -2.87371867347115       -0.00100040925740
C           -1.65820140173922       -1.90058251810183       -0.00103821487803
C           -1.68625968765203       -0.51026119395095       -0.00061437613206
C           -2.95009005297119        0.15452815513924       -0.00087768862970
C           -4.19520346324502       -0.48682135791105       -0.00195063312919
N           -5.21173311918416       -1.02096008608966       -0.00155633512896
C           -2.76083855174798        1.53588908251563       -0.00025052114360
C           -1.38662634398377        1.77733726334807        0.00028891742565
C           -0.80065478664607        3.05029487231057        0.00072651978951
N           -0.32921456015518        4.09687610133606        0.00138901790812
C           -0.67718621490702        0.53983688874935        0.00007768055786
C            0.71126430218672        0.55449916903218        0.00038319835580
C            1.69735056295441       -0.41474589884050        0.00018957243809
H            4.95583477936284       -1.15334132678664        0.00062574110140
H            3.39901471835490       -3.29406796186855       -0.00035230680077
H            1.14419953257604       -3.85674081095250       -0.00081658859900
H           -1.07874535928359       -3.87861450394156       -0.00132480051985
H           -2.66112088531281       -2.32043123974529       -0.00144638256086
H           -3.53420969109268        2.28165995418706       -0.00031679266238
H            1.11641199864106        1.56562213078683        0.00082000302145
