30
 energy: -50.098011690598 gnorm: 0.000590799316 xtb: 6.6.1 (8d0f1dd)
N            4.69567976739659        1.48719062694592       -0.03984272006621
C            3.81429495812488        0.74424596760382       -0.01860668175767
C            2.77577569005635       -0.17899235263600       -0.00227910300806
C            2.96154330611846       -1.58662761387796        0.00271748583032
N            4.16551410087304       -2.20998086693226        0.05802656552898
C            1.70439499267422       -2.17645249545632        0.00487830772733
C            0.70131809578909       -1.18592410259683        0.00269274331021
C           -0.62881923561665       -1.55474409329011        0.00631224151787
C           -1.84654581688744       -0.88179089205371        0.00669825549834
C           -3.06196483861381       -1.56640016523931        0.01204821039489
C           -4.07858707174153       -0.59369578553094        0.00841625579036
N           -5.41469174723896       -0.81221342797181        0.06430807590277
N           -3.58004468029282        0.64687348998095        0.00012630638615
C           -2.23091339048620        0.54433771869579       -0.00069489409384
C           -1.54949917927043        1.74185065543672       -0.00990263961975
C           -0.21143359029761        2.15495731923796       -0.01621553443302
N           -0.05034808126922        3.52213798470063       -0.07957772219046
C            0.99191055088919        1.44138209928659       -0.01116767675490
C            1.38884499926659        0.11702068894063       -0.00411267138127
H            4.99233975489170       -1.66476364471330       -0.11796237159997
H            4.20883382693835       -3.19499593768417       -0.13548816286473
H            1.51736136186726       -3.23483358438265        0.00986573195104
H           -0.75995439227505       -2.63453338412798        0.01101012529563
H           -3.20205643329484       -2.63052210877388        0.01969875805696
H           -6.00748418663696       -0.01868307525953       -0.10885281951838
H           -5.76572913570292       -1.72129527075787       -0.18028065662574
H           -2.25460537332631        2.56846323672747       -0.01499998963416
H            0.85717040525235        3.91286018685542        0.10561507972963
H           -0.84235275163032        4.10970589603225        0.11284897436696
H            1.85380478164344        2.10716780884034       -0.01692949063921
