25
 energy: -43.480454320438 gnorm: 0.000472680913 xtb: 6.6.1 (8d0f1dd)
N            4.46574622228421        0.91288046724051        0.97439690741453
C            3.59890186215943        0.22157924808116        0.67046852791071
C            2.54541262947311       -0.61593095871605        0.30149952734473
C            2.61018590485286       -1.99975148054139        0.09116016452133
C            1.36110090227243       -2.45957389127723       -0.29421990569005
C            0.43739462406159       -1.39709974952750       -0.29603994610219
C           -0.92194945037654       -1.60814414749613       -0.38781115918104
C           -2.02933464159198       -0.80294200683786       -0.14145319904005
N           -3.21700198934541       -1.42162886943590       -0.09784121290937
C           -4.14072257668892       -0.51684625269031        0.26070679035868
C           -3.60035981827424        0.73743284554405        0.45009868612424
C           -2.21256304030940        0.63235840040307        0.17491947603084
C           -1.40788448174029        1.74175370746565        0.06921151180148
C           -0.03745201785885        1.90888939386447       -0.24770031222779
N            0.33926615524599        3.14863879607056       -0.67476095895609
N            0.97662049565723        1.09881936083303       -0.07228538268240
C            1.22063170319287       -0.17157649646891        0.01656165262498
H            3.49666959463965       -2.59664330192377        0.20941747249407
H            1.11404066784620       -3.48016784745298       -0.52229474712223
H           -1.21278334993736       -2.63854478898738       -0.56854601974943
H           -5.16800539992954       -0.81569204335411        0.36949825525786
H           -4.11971372926881        1.63501220263049        0.72513336118593
H           -1.92506949203676        2.68134538822161        0.24217369045687
H            1.32680427480116        3.33496895659753       -0.72659517711737
H           -0.29377374022880        3.92602051845806       -0.61950533434788
