24
 energy: -44.550095284060 gnorm: 0.000969374643 xtb: 6.6.1 (8d0f1dd)
N           -2.25770392965998       -3.40986624836555       -0.00212165256991
C           -2.27744851761431       -2.26269309970502       -0.00431508117127
C           -2.35419569893234       -0.86432835269728       -0.00317215669778
C           -3.52761702562643       -0.11569431948725       -0.00378340372727
C           -3.19450119215065        1.23687763152670       -0.00319925452294
C           -1.80336977225442        1.40493875599304       -0.00209320774425
C           -1.25426669487422        2.68283978158116       -0.00135329792611
C            0.03122278993815        3.20520325783535       -0.00025625403432
C            1.29843322914156        2.63969703366618        0.00045161695831
C            1.78493349458422        1.34050246283843        0.00035476397355
N            3.13161810244743        1.21290278945351        0.00111932966514
C            3.43253450747422       -0.07467355857334        0.00117782856617
C            2.28696996728318       -0.88949193057708        0.00066778487160
C            2.26365212512515       -2.28625862725485        0.00282235558802
N            2.28781784779956       -3.43386391417964       -0.00359996544900
C            1.17366052541358       -0.00590971045500       -0.00045687575426
N           -0.04401035333011       -0.48971189530867       -0.00121124342176
C           -1.22924340776975        0.02560456592030       -0.00189440359609
H           -4.52277565837054       -0.52195854263647       -0.00477780090794
H           -3.90483811024319        2.04464968676701       -0.00365879192085
H           -2.02330614194652        3.45084557997019       -0.00172148651368
H            0.05009593207613        4.28911213819763        0.00007903144470
H            2.11446890850403        3.35494562997786        0.00123680334312
H            4.45641816058525       -0.40282155018717        0.00219466814686
