27
 energy: -51.732573372981 gnorm: 0.000566095681 xtb: 6.6.1 (8d0f1dd)
N            4.03776955081282       -1.93938470566714       -0.97102986377122
C            3.34288814334652       -1.11031463628829       -0.58239594578826
C            2.64701677997691       -0.00092971450448       -0.09177069826894
C            3.34552491047916        1.06269704069633        0.56731453634294
C            2.45505391579181        2.01331110505302        0.94434616119883
C            1.14630305734066        1.65208249421072        0.46122276722306
C            0.18803374578922        2.60308628048054        0.36012763648092
C           -1.09154924708902        2.56950133672517       -0.31713284120685
N           -1.41167703898987        3.67489191526626       -1.02474383166368
N           -2.00943044323020        1.67373631921541       -0.20786734657262
C           -2.06519752064356        0.40705870227625        0.11569696858423
N           -3.19736920791030       -0.16260275545858        0.49971173842220
C           -2.96089218097828       -1.49268388172513        0.39733856635081
N           -3.88385208242252       -2.39899441079443        0.71026710261204
N           -1.74180128122218       -1.83778462014599       -0.04230091748199
C           -1.07713331256652       -0.68122669435138       -0.16587615341665
C            0.29717399418195       -0.67851554653047       -0.41214597538713
C            0.74329768200485       -1.96051788349072       -0.83535712132064
N            1.02853924510571       -2.99775218834659       -1.23097516549173
C            1.27690878814745        0.28460384772888       -0.11091020919087
H            4.40791542466030        1.06553751084976        0.72946717031188
H            2.67243732243937        2.94097837210199        1.43915243379679
H            0.44152547624966        3.57653004673452        0.76698783237113
H           -2.31159695674460        3.71610012453121       -1.47097129816187
H           -0.77969658302156        4.45042271588092       -1.10347651562256
H           -4.78063122783842       -2.09414170156328        1.04179248079807
H           -3.67398075326814       -3.37173899048713        0.57596165885190
