24
 energy: -44.545804375649 gnorm: 0.000811076572 xtb: 6.6.1 (8d0f1dd)
N           -4.58082448491333       -1.96343063207805       -0.00052786561101
C           -3.85298485066192       -1.07590032218775       -0.00348312442787
C           -2.99721454592456        0.03244157140890       -0.00427821080722
C           -3.40831012723296        1.37621951504135       -0.00727578572134
C           -2.28630286379160        2.17908718164705       -0.00844625172210
C           -1.11414579323438        1.38655101314016       -0.00590710216206
C            0.12893551630401        1.97552803189449       -0.00437764799813
C            1.43249938739490        1.47851442118249       -0.00032061701306
C            2.54849526650387        2.32187508344730        0.00134121714440
C            3.68278571636157        1.49813784766786        0.00581034968639
N            3.36363051200096        0.21630974755326        0.00705440602518
C            2.01189342076851        0.12402066825468        0.00335606283994
C            1.48662137640801       -1.16458021486607        0.00243571347050
C            2.48889272700166       -2.17786768213957        0.00464409308964
N            3.23790087064415       -3.04425193953314        0.00845964689433
C            0.17958660354240       -1.70367747773530       -0.00118380708153
N           -1.02272776766139       -1.21372711176071       -0.00241424705418
C           -1.57790663373812       -0.02964575602626       -0.00358586858953
H           -4.43095432677826        1.70668097744275       -0.00867863165012
H           -2.28800003363161        3.25438721199496       -0.01092322416801
H            0.09523730251310        3.06255233465218       -0.00595933418700
H            2.53613675219546        3.39477681620672       -0.00045032056670
H            4.71342388827673        1.80251802647064        0.00809612916507
H            0.16447620025281       -2.79366135807796       -0.00225931625557
