26
 energy: -44.000809093553 gnorm: 0.000672376622 xtb: 6.6.1 (8d0f1dd)
N           -3.62987969246310       -1.92494832679201       -0.66779547597802
C           -2.98362139376938       -1.02013231323703       -0.37821286208350
C           -2.31333285529231        0.17984615643746       -0.10886737632854
C           -3.00358416698802        1.40283438346494       -0.08638680495455
C           -2.08161721082915        2.41301275021962        0.08655052273906
C           -0.77382062472343        1.87756034733320        0.12215358908278
C            0.29566870213227        2.76075639217464        0.23521236435874
C            1.67156913968883        2.67678440251152        0.12553913080226
C            2.55759419011024        1.63236603860046       -0.09958303298579
C            2.46916877825151        0.25081775108333       -0.15270188572682
C            3.65107077648695       -0.50010726792654       -0.32258466258082
C            3.37123697535832       -1.85468021274545       -0.21366732450947
C            2.01273051789317       -2.00129410306160        0.02669143876765
C            1.39002333828767       -0.73252755114360        0.04583589673938
C           -0.00079328004756       -0.63021131363286        0.14854896755261
C           -0.61015879755801       -1.88323834942868        0.46591888904280
N           -1.04437669565886       -2.87859250377031        0.83244528845238
C           -0.91662216505641        0.42462765819920        0.03045774854055
H           -4.06733745348294        1.50862476669949       -0.19142415414005
H           -2.30874111412828        3.46125564988520        0.15494507515124
H           -0.05041524152513        3.78087010735182        0.37676846704801
H            2.16274896161207        3.64123563802393        0.19290957504804
H            3.58018892200995        1.97348550889954       -0.23488661554249
H            4.62171746584023       -0.07101659366069       -0.49343122709890
H            4.08175155661896       -2.65589021700382       -0.29788667468705
H            1.50371876403208       -2.93914245348178        0.14607631619060
