29
 energy: -55.968946503838 gnorm: 0.000403343377 xtb: 6.6.1 (8d0f1dd)
N           -5.50156685117953       -0.83312303692663       -1.07184777885641
C           -4.60305549796626       -0.18619119799440       -0.76287955678599
C           -3.50714996889833        0.59218721500644       -0.38645212121393
C           -3.48817526378694        1.98955980093783       -0.22439579454459
C           -2.22930541334800        2.40088537405050        0.17686152807618
C           -1.37129575501245        1.28760688576457        0.24999035569938
N           -0.08591236753130        1.44675970971882        0.35482366282643
C            0.95311250811711        0.66393581614183        0.20663591019809
C            2.23988263462740        1.24901255519233        0.21176318438727
C            2.54305549444416        2.58655598980976        0.46893338095807
N            2.86342872894957        3.67072387695937        0.67737280496892
C            3.21579840646818        0.27371217145975       -0.12807363949425
N            4.53364547506400        0.49253587008275       -0.23112993513796
C            2.54700866251292       -0.94635838169798       -0.33229167910604
C            3.17040350624675       -2.14531473371059       -0.67264276383100
N            3.69511562194167       -3.13220072108217       -0.94664330424116
C            1.15101581466591       -0.78341220469168       -0.08341374776493
C            0.33210064218812       -1.87857541992574        0.01700827780853
C           -1.04202665908013       -2.00995548617248        0.35898893191425
N           -1.42440999303238       -3.20392506435244        0.87654206842594
N           -2.03807473672126       -1.19450975459373        0.11848464452681
C           -2.23562614003052        0.07483926190998       -0.03003714662588
H           -4.33741717256464        2.62844566114799       -0.39040037732974
H           -1.91685732560702        3.40941118912662        0.36710378415357
H            4.90611842463019        1.41094634968447       -0.06192677258769
H            5.15306652685831       -0.25263567430400       -0.49867411761287
H            0.83505506887389       -2.82983027043858       -0.12994848599019
H           -0.78056274491468       -3.97163179264214        0.94111681929763
H           -2.40853842320898       -3.37524534526223        0.99399607228371
