29
 energy: -51.970929092862 gnorm: 0.000735181685 xtb: 6.6.1 (8d0f1dd)
N           -5.38412125444792        0.53154878433704        0.44210064945784
C           -4.36565004921464        0.03201672005301        0.25954444639204
C           -3.20264400172936       -0.72953887768686        0.09019868240774
C           -3.26206289669135       -2.14032620724145        0.07668905713880
C           -1.98365028079399       -2.62584808796692       -0.03724824660371
C           -1.05617750144018       -1.55128791729711       -0.06834313488496
C            0.28917739268823       -1.84736466133704       -0.12987188962068
C            1.48640491167559       -1.13494782170122       -0.08137118875852
C            2.70508419781069       -1.82337035759801       -0.08937998900698
C            3.77295610680122       -0.92018774515403        0.01652278388076
N            5.08533300290596       -1.21824656610554        0.07353241204991
C            3.21777684010505        0.37763747250927        0.08605339546875
C            3.97210881770396        1.54613163581244        0.18713552454830
N            4.62806272560497        2.48785425269666        0.26671942287170
C            1.80080174687287        0.29173425934106        0.01937468294596
C            1.04490752715113        1.45237575686143        0.01580784379654
C           -0.30332918461006        1.75956349411395       -0.07839837048008
C           -1.50122490187883        1.03922004098044       -0.09848443022453
C           -2.58604487690656        1.95406393346954       -0.25625378260877
N           -3.35515176158657        2.78275008771605       -0.44258792733354
C           -1.85289538681119       -0.31503639950144       -0.01009080311721
H           -4.16911514096265       -2.71162791982259        0.14755139185183
H           -1.70643794882013       -3.66325639923906       -0.07632370249227
H            0.46589275785831       -2.91851507642655       -0.19244571004144
H            2.81010781876844       -2.89092564177226       -0.15754833125936
H            5.76516083728418       -0.47795205779467        0.08183595338889
H            5.39759791842192       -2.16139281771205       -0.07093822022521
H            1.66874793073965        2.34061037470361        0.07521199776410
H           -0.47851390479881        2.83032933406231       -0.13080824390602
