26
 energy: -52.798691115133 gnorm: 0.000502313991 xtb: 6.6.1 (8d0f1dd)
N            3.73411259676024        3.26863158624131        0.03275154507488
C            2.79261963892906        2.61708094687666        0.02124235405234
C            1.55455028302338        1.90167613608420        0.00991014693293
C            0.44999784237075        2.77124751754836        0.01224759733876
C           -0.90803006864609        2.59167669869031       -0.00568686569498
C           -1.74897192707615        1.47243799195489       -0.01707599600858
N           -3.06026690770103        1.70283369479456       -0.03556158843187
C           -3.64671384916112        0.48512653430889       -0.02690166866025
N           -4.96398419470931        0.32042996185083       -0.04400995141633
N           -2.78716027008749       -0.54523066120880        0.00104891762309
C           -1.56658682007728        0.00214475138844        0.00406935383836
C           -0.47546555868863       -0.88007478537611        0.02475855120867
C           -0.93405139016251       -2.22995598511465        0.08155258491609
N           -1.34114395361865       -3.29870341010596        0.14176086277021
C            0.90436895501321       -0.68869519781179       -0.00238099006403
C            1.84019875715424       -1.75039876204740       -0.02087384099746
C            1.66378414425343       -3.13847749036815       -0.04129271405854
N            1.65129919481338       -4.28605144463138       -0.06511441863427
C            3.12056790446746       -1.15777510415644       -0.03966185660250
N            3.05820097097091        0.15719554748680       -0.02746046491131
C            1.75749554486056        0.52437109941275       -0.00864250763735
H            0.75373865635271        3.81361209470227        0.02444536709217
H           -1.49350001654397        3.50442886514492       -0.01087285143829
H           -5.56450309667286        1.12517778253864       -0.06533409288936
H           -5.33914999283860       -0.61165635373039       -0.03303523895719
H            4.06414015831399       -1.67130568367336       -0.06185228154434
