24
 energy: -43.750124836001 gnorm: 0.000996819204 xtb: 6.6.1 (8d0f1dd)
N           -4.01072053646850       -2.21784634423659       -0.01014124115605
C           -3.00995769645017       -1.66039594054938       -0.00619618458574
C           -1.72404110981172       -1.04390506884471       -0.00056730493523
C           -0.67845398359663       -1.96866384074472        0.00562995414323
C            0.70052246605174       -1.86417020277476        0.00996020611018
C            1.60578526865461       -0.80959540189233        0.00922571143066
N            2.90153159421430       -1.14741533447786        0.00858416314785
C            3.63182721548884       -0.01536697233094        0.00504620198508
N            4.97103915444213       -0.06666636748658        0.01677765906280
C            2.81689846424688        1.13120938336984        0.00449924421244
C            1.49530129297432        0.68388631303630        0.00678637847875
N            0.51168739924961        1.55579114195068        0.00620957246304
C           -0.78239100541438        1.46211640626661        0.00381523954908
C           -1.57758220183278        2.63741697544404        0.00334764769601
C           -2.89260695683942        2.22990760654647       -0.00278357603992
N           -3.01946945262676        0.88952627688662       -0.00598529445387
C           -1.79837354909828        0.35543271663583       -0.00153428577292
H           -1.03376276532374       -2.99495506499022        0.00665377010770
H            1.22216806659602       -2.81553395509553        0.01318970813924
H            5.51915675165306        0.77141822589558       -0.04595059623224
H            5.41948128921590       -0.96457501073714       -0.02642044539781
H            3.13503987043282        2.15390052647627        0.00243058993539
H           -1.19500999364513        3.63771032436955        0.00662686022992
H           -3.77681207151276        2.84181255588298       -0.00516421431758
