32
 energy: -64.721534524277 gnorm: 0.000954978750 xtb: 6.6.1 (8d0f1dd)
N            5.15939505224394       -0.65734923568756       -0.04887452260096
C            4.25067202153134        0.02731598498003        0.10955104544223
C            3.21932690084993        0.93625762255752        0.36329763349938
C            3.42194584673249        2.11085909803904        1.14254119840016
C            2.24803796998461        2.81093542132745        1.24871253733732
C            1.25546802565520        2.13317311613638        0.49364144848566
N            0.19462603941526        2.72649551869285        0.05866318665315
C           -0.88994459690510        2.44909348664479       -0.61265634121256
N           -1.33369988491379        3.41595046898554       -1.44180857787120
C           -1.73879735583014        1.32011801375100       -0.36549182163810
C           -3.10823493409403        1.61872510072119       -0.54243981120062
N           -4.18748425712927        1.93472373354702       -0.77685634830006
C           -1.39605209801381        0.01708555053707       -0.00495052281242
C           -2.38271479220394       -0.94003923102455        0.33521263921280
C           -3.71581687742236       -0.73438760799781        0.70138478040859
N           -4.80442046018410       -0.68561473088695        1.06660481388810
C           -1.81230470241068       -2.23021196680131        0.30389957847530
N           -2.42992297980737       -3.38245978971198        0.57666587743390
C           -0.44380633756282       -2.08698649935216       -0.06249138540504
C            0.38871385210519       -3.21006201515129       -0.09144865267268
N            0.94311704293023       -4.21573199026663       -0.04362943102884
C           -0.13201786650496       -0.71753603463584       -0.19463591810967
C            1.20167258451929       -0.30603563419045       -0.39511617445307
C            2.04003748063402       -1.29003373622338       -0.98779023589759
N            2.67092858696730       -2.00149355837776       -1.62760583140278
C            1.85377637959207        0.85158966976982        0.03291433855757
H            4.36999632190786        2.38409199812513        1.56901465487011
H            2.09615545545235        3.75089861345979        1.74140109661226
H           -2.26772422593973        3.37949579396711       -1.81522936480669
H           -0.82738272518303        4.28464199530088       -1.48049393461906
H           -3.39517800106727       -3.38332836023523        0.86100394007751
H           -1.92554798854262       -4.25162352021718        0.51958824847847
