27
 energy: -47.733209795453 gnorm: 0.000644853670 xtb: 6.6.1 (8d0f1dd)
N           -5.18879411424416        1.37850907903472       -0.03449536418889
C           -4.34659881910636        0.59594442724506       -0.02256610262257
C           -3.32292976396937       -0.35438164072192       -0.01105707699532
C           -3.49900084013225       -1.73747913471706       -0.00548273644868
C           -2.24672659359358       -2.33856360759792        0.00584617924896
C           -1.23924389859762       -1.36080757822187        0.00706533941127
C            0.09571467714815       -1.73869312885698        0.01602987380143
C            1.31258794278800       -1.08208118492317        0.01644862912722
N            2.40205898287435       -1.87887094804212        0.01865994993652
C            3.48506545508975       -1.09544884507211        0.01689619819419
N            4.72734341036325       -1.60889894115026        0.05328724884815
C            3.13108493730378        0.27321443366397        0.01362324326455
C            1.74243129825551        0.32855401044018        0.01246288500437
C            1.04111254860573        1.55659532316925        0.00747278568499
C            1.90560048308409        2.68971827242110        0.00639536306479
N            2.57463930690683        3.62084790147935        0.00347682320950
C           -0.29110580274408        1.93363481362937        0.00104466993699
C           -1.51476373393405        1.25975418408160       -0.00430203909148
C           -1.92183274872443       -0.05547438997159       -0.00317561200238
H           -4.44810998281876       -2.24201868565935       -0.00933270004555
H           -2.06550420639537       -3.39754985057174        0.01239407984281
H            0.24157259057373       -2.81469105613668        0.02276290662923
H            4.83109149129336       -2.60310739417844       -0.04796446442476
H            5.52224290623685       -1.01396542811535       -0.09541738331997
H            3.81445379457592        1.10003888128775        0.01246513912184
H           -0.41373641699834        3.01319242289960       -0.00172619492916
H           -2.35723681214101        1.94737396818451       -0.01119130515803
