28
 energy: -56.250828908090 gnorm: 0.000825355880 xtb: 6.6.1 (8d0f1dd)
N            3.71316783740885        2.77385360192400       -0.02688179648935
C            2.73851614785063        2.17048423446840       -0.01436723605293
C            1.47353703572274        1.51450261693532       -0.00095227334254
C            0.44011387639629        2.44537735999594        0.00524437335611
C           -0.94842077595404        2.38798794278905        0.01585173880009
C           -1.88013294595571        1.36818540754182        0.01527319070425
N           -3.17717416886464        1.73735716398942        0.02332293480450
C           -3.92426606378647        0.63506707168921        0.01663847290148
N           -5.25689236282564        0.67229648056377        0.02136612238381
C           -3.11861511427325       -0.55227505629625        0.00418210501343
C           -3.63571328684371       -1.84549049377166       -0.00505153281449
N           -4.14776935800332       -2.87460890151014       -0.01030015916970
C           -1.78536666514920       -0.12278391089376        0.00416300984379
N           -0.80778359612743       -0.99771684315055       -0.00173275504253
C            0.48114811343064       -0.97701217340848        0.00011383923517
N            1.07815635903951       -2.18725920051337       -0.00072622170861
C            2.38536412427500       -2.01060808267026        0.00410734222370
N            3.25930756692370       -3.01403662087858        0.00665488674884
C            2.73493822478315       -0.60364692920307        0.00613585546706
C            4.07536203633454       -0.21852785080295        0.01469137469277
N            5.21638504612266       -0.07533544760464        0.02174373522326
C            1.53857668539260        0.10409841638612        0.00301677626404
H            0.81447849034218        3.46532799353952        0.00205684061820
H           -1.43228138759557        3.35845359302813        0.02327948872651
H           -5.72054707226263        1.56416677822757        0.03060421762033
H           -5.79016023621146       -0.17992952564942        0.01589839693262
H            4.24854869902974       -2.83085709990446        0.01108959680350
H            2.91209597800166       -3.95767942492087        0.00514532695556
