28
 energy: -51.447415854702 gnorm: 0.000680811240 xtb: 6.6.1 (8d0f1dd)
N            4.49616216171583        0.43494622821544        1.65685255173350
C            3.54545029989654        0.73276769482445        1.08253483735946
C            2.41607834938132        1.21073326738413        0.41527079478822
C            2.29639557280909        2.51211269778320       -0.06170760158891
C            1.03890593260230        2.67497452115293       -0.64162025944762
C            0.30260444753556        1.49197131857893       -0.53200044719227
C           -1.07358398271202        1.49669788140853       -0.74719280150617
C           -2.07604035114054        0.62164147266338       -0.38055612604975
N           -3.33322289951676        1.08082017641875       -0.26194452580030
C           -4.04491043464049        0.11931064441659        0.35385777333657
N           -5.34064422366263        0.31353317411870        0.64799246462700
C           -3.29058654183392       -1.05310360431692        0.58063914156650
C           -2.02941516519955       -0.79661678639160        0.07126852961054
N           -1.12764276740707       -1.71416593082249       -0.20980680452671
C            0.13051627784096       -1.76870214692320       -0.46287243574805
N            0.56205813826234       -2.84436522336530       -1.16737718651102
C            1.17777349399693       -0.88346566911807        0.05215584560614
C            2.27351438706409       -1.63545668992919        0.53518818065849
N            3.08995718917110       -2.36746505189489        0.87811598337838
C            1.22482997834714        0.48705754914154        0.05808335189496
H            3.05692369976773        3.26734524196519        0.02191635040815
H            0.65955739695760        3.59301767406189       -1.05004033220918
H           -1.46179946575167        2.45485529561281       -1.07647526175113
H           -5.73994172704232        1.21647733366424        0.46250317155600
H           -5.83663878774738       -0.34117008588671        1.22456642358132
H           -3.64205396421336       -1.96666849776787        1.01493148978285
H           -0.11444318638327       -3.55819954360029       -1.38176745626998
H            1.53647574980038       -3.09543339999210       -1.16146200868127
