28
 energy: -51.460684619498 gnorm: 0.000657250237 xtb: 6.6.1 (8d0f1dd)
N            2.87863422555593        3.64430068716127        0.00686336987102
C            2.04921902391715        2.85291412884826        0.00389007974878
C            0.95548570197783        1.93980361821284       -0.00214405518526
C           -0.28670892294150        2.60232915302534       -0.00979282039453
C           -1.59875964296322        2.20959642196312       -0.01283438887473
C           -2.27998891582305        0.98098787985957       -0.01221472524702
C           -3.66361589691180        0.92688555102503       -0.01022300026035
C           -4.02495735703875       -0.44460526247601       -0.01191604682972
N           -5.26838920655070       -0.95102368925701       -0.03915482938452
N           -2.95044086031535       -1.23428552652231       -0.01572682971063
C           -1.85698222076840       -0.44060109430012       -0.01520669050402
C           -0.64431025486334       -1.09076520504561       -0.01343756463966
C            0.68926621576767       -0.68681611931710       -0.00441590040203
C            1.73501368856280       -1.62480452708219        0.00115061352474
C            1.66157807489268       -3.01322503213276       -0.00087150796640
N            1.65656230916972       -4.16394602383116       -0.00323142994004
C            2.95745458160745       -0.87601292110695        0.01044676583299
N            4.19493966947471       -1.38193710928287        0.02185805993420
N            2.71870135014169        0.42917461768369        0.01020067153962
C            1.37899274191410        0.61406947881067        0.00139189210447
H           -0.15964312422311        3.68151714962918       -0.01187443113225
H           -2.29445212546625        3.04400055345619       -0.01596211367405
H           -4.34345251282326        1.75723559844381       -0.00817279917543
H           -5.37560144077365       -1.94687772096294        0.04100642805414
H           -6.06600050042003       -0.35542558429515        0.08910794230522
H           -0.77128981104010       -2.16996648302739       -0.01744261959198
H            4.97456914620390       -0.74846026764529        0.01962460154376
H            4.34360548933687       -2.37512666413410        0.00997264145363
