27
 energy: -47.728621019034 gnorm: 0.000671863432 xtb: 6.6.1 (8d0f1dd)
N           -3.88539802355426        2.93528933422423        0.00001683562327
C           -3.59809145523437        1.82176780916819        0.00093845576382
C           -3.23727361213917        0.47301110948172       -0.00046804454860
C           -4.12432983306193       -0.61271222116648       -0.00264190216935
C           -3.38364505225418       -1.77908579561227       -0.00348813930326
C           -2.00389080637326       -1.48034555952932       -0.00220838057697
C           -1.06911774175303       -2.50564836134741       -0.00486625046145
C            0.32436700541615       -2.58295366909741       -0.00557368804218
N            1.31867637169667       -1.73285751004057        0.00012503336069
C            1.45320613308585       -0.43631680689325        0.00437562554654
C            2.77251663120705        0.09375419455689        0.00820694063590
C            3.96127652203243       -0.63694873019300        0.00495597184019
N            4.97908356462859       -1.17167919885618       -0.00157379133865
C            2.71410292226050        1.50518573307710        0.00646699005425
N            3.77405557191832        2.33328593039725        0.02961904170495
C            1.35827977464412        1.87479083354265        0.00365393431305
C            0.54364180254350        0.74203038834401        0.00251243973771
C           -0.84242860645931        0.87473125674759        0.00156031171325
C           -1.89790466307466       -0.01331567000648       -0.00018562685882
H           -5.19634077079678       -0.53456808293443       -0.00348067020538
H           -3.78726412936907       -2.77510432452688       -0.00513916067847
H           -1.53497145054475       -3.48665991724652       -0.00752989908299
H            0.70213329755675       -3.60512667725255       -0.01069827762940
H            4.70313408918595        1.95401202041658       -0.03053168752312
H            3.64483087876244        3.32609420138003       -0.04837987621959
H            1.00047742678512        2.88915934182614        0.00227974435729
H           -1.16413589280868        1.91437546484034        0.00282863748731
