28
 energy: -51.443338286803 gnorm: 0.000981062486 xtb: 6.6.1 (8d0f1dd)
N            3.97649112200471       -2.08801489435170       -0.82082653228190
C            3.29685556624101       -1.22394504140175       -0.48386466859934
C            2.63149930017047       -0.07177576259680       -0.05388436081922
C            3.36934118863697        1.00093479687873        0.54740921952047
C            2.51140893735384        1.99887083705961        0.86937575850496
C            1.18741719867973        1.65224502474099        0.41338679288412
C            0.25327190691615        2.62833299896381        0.30400860845559
C           -1.05552119628741        2.65084512476451       -0.30499785198377
N           -1.40547529963987        3.84671477991510       -0.85741977056405
N           -1.99933928628779        1.77691334599252       -0.24591505918891
C           -2.08479654195308        0.48935620179825        0.04182398480034
C           -3.27358373503074       -0.13345426875630        0.37353963787101
C           -3.03354415965062       -1.52628678782277        0.27418160435613
N           -3.90523785768250       -2.51719913818931        0.50091555788564
N           -1.77824130915256       -1.79737840997967       -0.10642801577069
C           -1.12111890622813       -0.62726177606472       -0.18791007046140
C            0.25835340006899       -0.67333899241236       -0.37735746358249
C            0.67711991032076       -1.98596547415085       -0.73710136825423
N            0.95925745472196       -3.04239878974078       -1.08042268104297
C            1.27347452715879        0.26328126613338       -0.09490115553004
H            4.43164849396107        0.97613489789501        0.70834137434534
H            2.75884768088774        2.94327287624063        1.31668280151664
H            0.55736861138861        3.60191066321760        0.67602664191533
H           -2.28910141859301        3.89600205867965       -1.33433928712750
H           -0.70806677229633        4.53901731498085       -1.06099107248961
H           -4.20243087885857        0.34223861045184        0.61490657283659
H           -4.83896519809520       -2.32790925682644        0.81444048710074
H           -3.59733704655464       -3.46289671871968        0.35857116000280
