26
 energy: -48.012506281992 gnorm: 0.000337261180 xtb: 6.6.1 (8d0f1dd)
N            4.36653376492825       -2.22976063136838       -0.70048401441068
C            3.78072815501182       -1.29211942421227       -0.38345813798007
C            3.05847208809274       -0.15892264072898       -0.00939133535499
C            3.58482023169493        0.96731435176090        0.66895556584164
C            2.57650920340653        1.87059901340807        0.89975014525025
C            1.37586705038064        1.38317852759473        0.31798006761877
N            0.36999190691377        2.17442085591130        0.09560959229978
C           -0.84010903875244        1.98852494200326       -0.39796395489356
N           -1.35212733477289        3.00643096590843       -1.12504965668053
N           -1.68941107979932        1.03070017229927       -0.07314706982366
C           -1.58552147056676       -0.24972879778535        0.08426240321906
C           -2.70835227433617       -1.03853252361367        0.48814281461504
C           -3.90773023067664       -0.52108066641067        0.98058340500343
N           -4.89495620376438       -0.09913184945352        1.39033494959157
C           -2.42602392563163       -2.37722986771570        0.20741788707083
C           -1.13681567283472       -2.47916417888042       -0.30952295754383
C           -0.53571405905933       -1.21241373855847       -0.34576895496048
C            0.83039154446825       -1.03972988630890       -0.51619543223395
C            1.66545187445954        0.01521405085495       -0.18560427833141
H            4.61647245231464        1.07567895937728        0.95140325176360
H            2.66709296715308        2.83159590573479        1.36727668118945
H           -2.34471455657405        3.02267960767274       -1.28566192457591
H           -0.83372459526212        3.86630950120745       -1.17510850059076
H           -3.10489909938617       -3.19474425257574        0.37027878460730
H           -0.64920117188124       -3.39547351383868       -0.58753819593727
H            1.35873395157387       -1.94940693978272       -0.79021971905432
