28
 energy: -51.442824152253 gnorm: 0.000357575342 xtb: 6.6.1 (8d0f1dd)
N            1.91191070339995       -3.93013655404329        0.79537734465136
C            2.07860645487348       -2.83506323867490        0.48934630129592
C            2.34647215120043       -1.51520770652390        0.12023607244575
C            3.61215245143244       -1.04586781801913       -0.32754914202883
C            3.51932174250306        0.28356038439504       -0.62134239575479
C            2.20415011787147        0.75621986912000       -0.31202951612699
C            1.93824020942134        2.08804729813798       -0.24155458037421
C            0.78129127210706        2.81022092954804        0.20799456332255
N            1.03559142565551        4.07527107070437        0.65340491698393
N           -0.48119616648003        2.53155698439682        0.10720530661185
C           -1.22388462016779        1.46140658153872       -0.05936165824236
C           -2.57758380814610        1.56203481957158       -0.35257903234297
C           -3.18619831904246        0.30097857382680       -0.22369094562099
N           -4.48647135142545        0.01983876382132       -0.40045456445039
C           -2.19906084043156       -0.64612849101946        0.14600235145601
C           -2.47537737366038       -1.99239964453354        0.37313378642789
N           -2.79544296924838       -3.08352612479715        0.54793582318881
C           -0.93705452208047       -0.00043629164882        0.18652888207407
N            0.15002104638102       -0.69840902324029        0.29212948365765
C            1.42329208572824       -0.45359162180062        0.09814614904940
H            4.48619210090697       -1.66513196742810       -0.42066344159822
H            4.31295005754135        0.91329005823117       -0.98033765697109
H            2.76884396946058        2.73887252778041       -0.49769203155679
H            0.26335987069605        4.59735936789588        1.02987496080262
H            1.96939727214622        4.35635780013111        0.89173944186679
H           -3.08504468530455        2.47427863290520       -0.60390323753614
H           -5.13080405048808        0.73217813019923       -0.69254508285907
H           -4.81561380334491       -0.92074631147553       -0.26568290607390
