30
 energy: -55.692836243221 gnorm: 0.000719919779 xtb: 6.6.1 (8d0f1dd)
N           -4.40868999678933       -2.69151674492134       -0.13872248157632
C           -3.38901768913540       -2.17085418356128       -0.06919905251860
C           -2.09433866052390       -1.58369052823182        0.02132028125191
C           -1.12394818756257       -2.57007972493806        0.19406651029341
C            0.25668094684388       -2.58774736580592        0.23264408091765
C            1.26585163430553       -1.64392346897684        0.10628107867860
N            2.51446645022538       -2.15469709838932        0.03685309786068
C            3.36751900780879       -1.14505417992293       -0.09461049652741
N            4.68703410657637       -1.31956940453102       -0.23069988209444
C            2.68882170232646        0.11609692886976       -0.06837290901741
C            3.39096036925070        1.30413515477890       -0.25530951674562
N            4.10436486430555        2.18301204129784       -0.46223221236344
C            1.31819730971181       -0.17578258936826        0.06104639421537
C            0.33917750954600        0.82698756572559        0.19712247138268
C            0.90106104523013        2.10566867774520        0.48018211168258
N            1.32153067218742        3.12630911203740        0.79175432823390
C           -1.05386117359396        0.86372038278409        0.09916111510914
C           -1.72301505940069        2.09623865391144        0.08215011588108
C           -3.09060196404736        1.89171030632881       -0.12391163928306
N           -4.03397752829578        2.84354105489370       -0.22696802199961
C           -3.30981417669798        0.49999396116719       -0.20355970473276
C           -2.10603202158498       -0.17849806233749       -0.05562581885395
H           -1.56032320493188       -3.56168281680841        0.27605667413804
H            0.68454190857299       -3.58012606066734        0.32273625441038
H            5.05760208964573       -2.25240283265950       -0.24584313937637
H            5.29424975565024       -0.52586232598920       -0.33368251797122
H           -1.25467172533938        3.05764037206359        0.17223734835563
H           -4.99267789263811        2.59432417202314       -0.38937500224499
H           -3.78664485974626        3.81281026040372       -0.14352120696673
H           -4.27104190810165        0.04040856677716       -0.33916367633892
