25
 energy: -48.287056497461 gnorm: 0.000691094350 xtb: 6.6.1 (8d0f1dd)
N            2.72204280520265        3.34664788045294        0.95728899758992
C            2.60346213690699        2.26771843852198        0.57978543597779
C            2.46684381643656        0.95190464032178        0.13243360952072
C            3.48731996049547        0.19920498491018       -0.50827327815628
C            3.00453627318788       -1.03947173084268       -0.84130564052686
C            1.67411874999636       -1.16086923538000       -0.35230236713289
N            1.11222650934455       -2.31445617274484       -0.20504411417757
C           -0.08566613248950       -2.68996814717692        0.22421813673766
N           -0.12602350562111       -3.80217918076014        0.98350008315946
N           -1.23885876068057       -2.22873218357780       -0.20715533026924
C           -1.70983025831283       -1.04083814663908       -0.41198452585326
N           -2.94101676376495       -0.90401194813499       -0.95350281577292
C           -3.32916122766207        0.33585992696037       -0.73378556535317
C           -2.35339719837479        1.11414913469498       -0.06658846007948
C           -2.46769022514097        2.45802691895989        0.28764720403037
N           -2.56404710262028        3.56428893676329        0.58324615036591
C           -1.22732315914217        0.27732496446508        0.09774364700878
C            0.04104383553567        0.74287484209006        0.41197954208040
C            1.28671052888789        0.18283048775057        0.18042436728711
H            4.47870261834616        0.57000783384313       -0.69696565451554
H            3.54491325904760       -1.84007058904562       -1.30710830231836
H           -1.01478381359478       -4.24937309774550        1.12940901236350
H            0.72171353627370       -4.32035910075517        1.13611791496838
H           -4.30049055333965        0.67234844974173       -1.05001106037139
H            0.07049161838251        1.78696101092617        0.71671695453917
