24
 energy: -43.751310699285 gnorm: 0.000946375073 xtb: 6.6.1 (8d0f1dd)
N            4.08936459099723       -2.15877039702785        0.02949357806179
C            3.06731827884422       -1.64095520377683        0.01971250437988
C            1.76581103442648       -1.06199372907932        0.00858185003516
C            0.73966321928860       -2.00712186164748        0.00664144339478
C           -0.64257679932145       -1.93383377563922        0.00243188360947
C           -1.58402780866828       -0.90957259994684       -0.00244395233249
C           -2.94180713086711       -1.20756054278743       -0.00109748226613
C           -3.70652229329584       -0.02121254087465       -0.01070747856892
N           -5.04856884633465        0.04665984649824       -0.02417962505415
C           -2.82126343688569        1.06456154691850       -0.02072622532924
C           -1.50238415182517        0.60029864280881       -0.01361724737892
N           -0.53978174812235        1.47582626972282       -0.01500965871773
C            0.76153159278831        1.41885458345921       -0.00711137614579
N            1.43786879602943        2.58653799788337       -0.00690250497914
C            2.71739878279615        2.25378796506562        0.00132072582533
N            2.98831483980521        0.94675329120684        0.00704396611560
C            1.79308521850285        0.33682919659768        0.00253876227097
H            1.11749246842792       -3.02540498940354        0.01087241609804
H           -1.11275921579805       -2.91381268120591        0.00385000168908
H           -3.35581780472085       -2.20050128763631        0.00678323372546
H           -5.50922381135524        0.93821802919636        0.01512948438218
H           -5.60366104089981       -0.78824964522070        0.03512679087277
H           -3.08536135507937        2.10401844828465       -0.03019522051685
H            3.50097872016751        2.98918671170396        0.00318739332889
