29
 energy: -51.163018548985 gnorm: 0.000644106108 xtb: 6.6.1 (8d0f1dd)
N            4.24180242500540        0.75386103971503       -0.79510983088521
C            3.27581965966785        0.23708536801493       -0.44263584702732
C            2.17504067624348       -0.55043154229950       -0.09995153673408
C            2.30534930254984       -1.97003563760521       -0.00091634572027
N            3.47266652025186       -2.63693012659260       -0.09304895620372
C            1.03929864931247       -2.48926211757182        0.23132350367633
C            0.08321736852699       -1.45370545941987        0.21636613353512
C           -1.25580961510615       -1.77197538853711        0.34452648726053
C           -2.44306289986310       -1.08375764850213        0.14248002402405
C           -3.69096342674481       -1.71862815392662        0.15052971440424
C           -4.63166865112229       -0.76194387630455       -0.24044536517994
N           -4.08604937595260        0.41946069967485       -0.47857190080592
C           -2.75022770539363        0.30625277190068       -0.23761342943763
C           -2.03887628457105        1.47664340623172       -0.30883343904274
C           -0.73058343601193        1.90448754653550       -0.01169832276880
N           -0.60916991144745        3.26499719723142        0.03023150480822
C            0.46186211960379        1.16885425433358        0.17081306588066
C            1.55965007512142        1.98762828091996        0.54843638267505
N            2.37149229834699        2.68415317403277        0.96888780021163
C            0.82341491359459       -0.18941940265664        0.04820556119250
H            3.47852346455057       -3.64012316549384       -0.13026777819492
H            4.30226296150049       -2.13700472794654       -0.36387062293077
H            0.80766949912918       -3.53052747734688        0.35731867394146
H           -1.41630855000812       -2.82649085062745        0.55462380889696
H           -3.88052779128049       -2.74795332681808        0.38740625709936
H           -5.69233410218904       -0.90239050269952       -0.35402147492941
H           -2.69696562724254        2.29663408439853       -0.58365805807196
H           -1.43342259023356        3.83699926336062        0.00650769402499
H            0.26473235686803        3.69678817838028        0.27615532511261
