24
 energy: -44.551608490905 gnorm: 0.000686173287 xtb: 6.6.1 (8d0f1dd)
N            3.84852866971309        1.83368519660870       -0.10289867982030
C            3.09804616092818        0.96658145836808       -0.05201389865527
C            2.34535765945576       -0.21636831032826       -0.00992402898093
C            2.99347728369540       -1.46412983353560       -0.00746872757770
C            2.03601090649898       -2.45415341643555        0.01385986868817
C            0.74113378779036       -1.88602072646481        0.01599073796633
C           -0.34110399106434       -2.75062590244978        0.02804622375826
C           -1.73248929136702       -2.66053952599229        0.01209795192578
C           -2.62256916843702       -1.61086362019931       -0.01851444195950
C           -2.47857375166791       -0.22534782077653       -0.02737188655776
N           -3.60715481651360        0.50819230272225       -0.05296877363835
C           -3.21016458802781        1.77705581522645       -0.03798922242337
N           -1.89635908307190        1.96037734547537       -0.00135490312838
C           -1.35903963179120        0.72378539722339        0.00329000329484
C            0.04362910225293        0.64647008322130        0.02602354443688
C            0.59363975849275        1.96462532912790        0.08505733336381
N            0.99491004423467        3.03443995813814        0.15838814396266
C            0.93872628069307       -0.41638498658180        0.00723101017482
H            4.05933700670577       -1.59765809943187       -0.02116873860952
H            2.23312196770295       -3.51036758463756        0.02224352898235
H           -0.00632475970112       -3.78450373411933        0.04609820085779
H           -2.21496534039304       -3.63145355968170        0.02087658729983
H           -3.67064114191458       -1.88963011312442       -0.03578775732282
H           -3.90166818601456        2.59793199684722       -0.05381317823772
