29
 energy: -56.757145306473 gnorm: 0.000341237143 xtb: 6.6.1 (8d0f1dd)
N           -3.58870993792307        2.69226778108698        1.04104836989578
C           -2.66450341802330        2.17477612424584        0.60359488481731
C           -1.42309318313453        1.60930279305144        0.18913627815017
C           -0.44139894208793        2.58678289382969        0.08615822850033
C            0.90808103105293        2.57383713667124       -0.23721362932943
C            1.88654150796182        1.59782363809543       -0.26443564396996
N            3.13856375500686        2.02405851038651       -0.52219974717558
C            3.97043221030412        0.99656470236518       -0.33622679934312
N            5.28914208299086        1.11014814279428       -0.52081978064731
C            3.26699719447655       -0.17037976426232        0.07043122164290
C            1.92102263195476        0.16271188067580        0.09024822595166
C            0.91325701762163       -0.80837482036764        0.30863199007536
C            1.46105176169684       -2.01716985448378        0.82954804054603
N            1.95149904937055       -2.90048301960042        1.37109876324960
C           -0.44951381422423       -0.83081565433478        0.05297949596008
C           -1.14600634790164       -2.07898483460269       -0.11129063015794
C           -0.60009335772854       -3.36872255445179       -0.18749720218724
N           -0.23695947846645       -4.44980601275747       -0.31790926183637
C           -2.47808144944921       -1.82396198313297       -0.38579811237451
C           -2.68796538092039       -0.43218076878046       -0.32201303721702
C           -3.93003659803112        0.14807475557017       -0.61917338686810
N           -4.96043656587053        0.54232149565404       -0.93558741979488
C           -1.46454886603731        0.21965538210559       -0.06666705804177
H           -0.83471071976144        3.58765808028356        0.23736843225043
H            1.32934892658588        3.55079960326061       -0.44606901970009
H            5.90307939736534        0.33396763555431       -0.35383301797310
H            5.66304719943328        1.99265061918949       -0.82243212818300
H            3.70634112422170       -1.12683834468292        0.27521382573733
H           -3.22762311728330       -2.55706207596287       -0.61930561177747
