32
 energy: -59.139569322298 gnorm: 0.000971720562 xtb: 6.6.1 (8d0f1dd)
N           -4.71702932178435       -1.95692008231616        1.31188737335592
C           -4.05178061328079       -1.12224768631966        0.88108701822274
C           -3.30125722058988       -0.07134604272469        0.36276110547717
C           -3.80622396294273        1.23357583221830        0.11075169410937
N           -5.05846190067749        1.63643623338019        0.39289430441200
C           -2.78466705332594        2.00559621280096       -0.45728412598902
C           -1.60529834808947        1.25400172477707       -0.51151766627669
C           -0.36424275076214        1.81556970945403       -0.75277441736996
C            0.93986932293596        1.42042581911794       -0.46886029129297
C            1.95932338115963        2.37856427579315       -0.45788305056263
C            3.12394294076209        1.83539849889066        0.09710317485505
N            4.29473471852453        2.46287804908858        0.30453572721065
C            2.86789762529424        0.47428564785166        0.40517598309825
C            3.84183501964546       -0.31705229501751        1.01237202022942
N            4.72333891453649       -0.82658966474316        1.55008045948168
C            1.54929241076579        0.15182976648900        0.00441958103871
C            1.11875505270465       -1.16292632550495       -0.11891528266763
C            2.05562013797202       -2.18771315561214        0.14150709033665
N            2.74608504098380       -3.09354610020813        0.29696001518356
C           -0.15296782149368       -1.69070517502528       -0.54830273418152
N           -0.13690950932713       -2.88314288883879       -1.19801028843141
N           -1.33882249880500       -1.24385812231530       -0.26674930032131
C           -1.96277518413415       -0.11997436064382       -0.07856153694528
H           -5.37789332517410        2.54509434069646        0.11046434542761
H           -5.71602900686494        0.98299169387852        0.78105094744082
H           -2.87765812522001        3.03630681440111       -0.74593706099391
H           -0.42335780469630        2.85894914853600       -1.05126726841930
H            1.84345320015127        3.40214440018299       -0.76321429126618
H            5.04024231889408        1.97616207926868        0.77176393613954
H            4.39899323501625        3.43772986874173        0.09063787813125
H           -1.01841923960713       -3.35598516802466       -1.30997260044867
H            0.70607200872664       -3.43282686647472       -1.22079939838156
