27
 energy: -51.737692500029 gnorm: 0.000782124262 xtb: 6.6.1 (8d0f1dd)
N            4.79038254740117        1.09321268975037       -1.38339931625444
C            4.03768597007295        0.33377643209932       -0.96132040286698
C            3.12527143056665       -0.58893565323591       -0.44773050757868
C            3.37571466924394       -1.93725701340888       -0.14999423644693
C            2.23638082519671       -2.51747360058324        0.38479604565277
C            1.18893470415625       -1.57913314038283        0.39474145874625
C           -0.13072546724974       -1.92993439863435        0.54130989839003
C           -1.32042744535923       -1.25654859591225        0.25141499442723
N           -2.44205277937729       -1.97675618305891        0.19342044977946
C           -3.40021726491439       -1.11859925809692       -0.22719243782631
N           -4.66046471545391       -1.50454064547855       -0.42038604258190
N           -2.98932375430914        0.13859385342415       -0.42826648358225
C           -1.68429708734314        0.13717351573384       -0.11902437087049
C           -1.02218479875380        1.35859481748810       -0.02377412489104
C           -1.83765037423613        2.48757143150869       -0.26385669884362
N           -2.45708944099803        3.43913370802980       -0.43505282420792
C            0.33173390928660        1.64998851043729        0.32754452839932
N            0.58889152723751        2.86801564516624        0.86122430884582
N            1.39473160862696        0.93958465682113        0.06142379266448
C            1.79605705857673       -0.28209590726313       -0.04691340950401
H            4.31700357822096       -2.43100128929545       -0.31404467672591
H            2.14110032227451       -3.54215349646378        0.69203883070951
H           -0.30862689753013       -2.97496544006771        0.77404864223902
H           -4.91961828715108       -2.45549715731510       -0.23175153846919
H           -5.33432424690210       -0.83093980708016       -0.73638051474121
H            1.55125186966005        3.15481536000677        0.93179711241174
H           -0.13439780694220        3.56705860931201        0.89316187982623
