26
 energy: -52.784190315317 gnorm: 0.000782423563 xtb: 6.6.1 (8d0f1dd)
N            4.78687191242005       -0.02607461879289       -0.20713573547821
C            3.81955926067824        0.58185009723928       -0.09534870804754
C            2.66334005871446        1.35530640375255        0.04505761791364
C            2.62610223205307        2.70991201251492        0.41475100690943
C            1.31369250232036        3.15492037664981        0.45784970110213
C            0.45402933859226        2.11263268704681        0.07974778030787
N           -0.82019744443858        2.28116629898776       -0.09732962321109
C           -1.89960009017128        1.58683772935695       -0.29146966541796
N           -2.90123603069558        2.21582539982291       -0.94186081624903
C           -2.20198790195586        0.27920783628391        0.25578084408772
C           -3.56215485274249        0.08806395788081        0.59770937434109
N           -4.67847146758225        0.00961704393526        0.85079727445972
C           -1.38883086199746       -0.82874400613036        0.38081098261226
N           -1.97106904601593       -1.99806768315430        0.74113540958060
C           -1.16872184066877       -2.97695158552243        0.37692451822864
C            0.04717926209070       -2.51408128491602       -0.17404852322252
C            1.10283150116987       -3.30631157656824       -0.62732606479849
N            1.94429229814157       -3.98478258879490       -1.01467806636487
C           -0.00038973091950       -1.09994732907928       -0.10730545290935
N            1.06149608551259       -0.36031103128477       -0.26282687858910
C            1.33117492916636        0.89590711048716       -0.13236315239505
H            3.49729091165111        3.30519165940174        0.62262485907232
H            0.99019030273337        4.15205253115913        0.68716759331799
H           -3.82746561172781        1.82260779439477       -0.95839060535703
H           -2.76560712865484        3.17181433219436       -1.22490532303748
H           -1.45097352618118       -4.00328056596446        0.52781863853982
