28
 energy: -52.245025278389 gnorm: 0.000944153211 xtb: 6.6.1 (8d0f1dd)
N           -3.05234053696035        2.95203899476959       -0.56518250391565
C           -2.12382015643605        2.31841921804214       -0.34266133450889
C           -0.89753663454733        1.62483688632868       -0.12111851117163
C            0.16155966106855        2.51249898723679       -0.04832311116415
C            1.54420640678478        2.40090782703695        0.12586335083233
C            2.46737425539070        1.38228151790649        0.12751502955073
C            3.84615079854232        1.69557883735325        0.24594021924044
C            4.59574504322422        0.54504122508650        0.12840935112533
C            3.72823448538175       -0.53895965468577       -0.05307707131647
C            2.40412802591704       -0.08983215023819       -0.04550886208197
C            1.33367701526000       -0.98561440632121       -0.12492483139967
C            1.72022266315236       -2.35535453986909       -0.25432392785651
N            2.06206335442536       -3.44213379217747       -0.37709517993262
C           -0.05921800569265       -0.87764314664780       -0.04838231965636
N           -0.70813181736707       -2.06392195171988       -0.01422924666091
C           -2.00955006257477       -1.82860802007027        0.07768093483148
N           -2.92111295233192       -2.80123340100727        0.16513413728195
C           -2.27423948605343       -0.41747663931082        0.06888021276700
C           -3.57475161785840        0.06882108112510        0.18789169113101
N           -4.69077697986615        0.31217027494115        0.32183864411431
C           -1.02577688224797        0.22120129298605       -0.01348088854424
H           -0.16503672187660        3.54595310068457       -0.12356355694089
H            2.01378338137276        3.37310944142512        0.24718730218104
H            4.22774737698398        2.68989294071897        0.38728489431109
H            5.66750529121674        0.47993506141768        0.16813644146115
H            4.03123878836668       -1.56285257073757       -0.16632349261018
H           -2.61110820887213       -3.75666463346053        0.15130642706570
H           -3.89910025150322       -2.57842863071401        0.22533499436676
