30
 energy: -60.493176177161 gnorm: 0.000495456288 xtb: 6.6.1 (8d0f1dd)
N           -2.94654303611591       -3.43187301965548       -0.84867298401333
C           -2.10817526324517       -2.72866150308277       -0.50691722060324
C           -0.95921449926979       -1.94338930207968       -0.19502419615172
C            0.16023562143475       -2.77886734409899       -0.07952814679503
C            1.50023462537608       -2.59021135765656        0.16900272288248
C            2.32542676603327       -1.47000613589529        0.18127072188036
N            3.63562651235841       -1.65466026104184        0.36920301050860
C            4.19808066334160       -0.44575275881097        0.18497542250590
N            5.50525800767350       -0.23099424767962        0.29239615310684
N            3.33151406655416        0.53926476753283       -0.12212130823238
C            2.12610574350475       -0.03336509056635       -0.11334446212279
C            1.01544507537170        0.80242012040342       -0.31507689571195
C            1.44998394212548        2.10547483680122       -0.69528475998188
N            1.83355873953082        3.11078646015602       -1.08958196919640
C           -0.35904754737730        0.63183880048684       -0.14172275063704
C           -1.22119040109780        1.74925610591017       -0.06924226375026
C           -0.94541531411205        3.12141783471564       -0.05878838770597
N           -0.90885370544503        4.26809757005218        0.00985202831884
C           -2.55232126650272        1.30882433036497        0.12887581781250
N           -3.62429671218312        2.08433297054977        0.29971170397918
C           -2.53669382982930       -0.10994988047752        0.12144454936955
C           -3.71537888872184       -0.82038439763312        0.37570323801158
N           -4.74472110009008       -1.25180243805203        0.64999580175759
C           -1.21395090228741       -0.57018448626926       -0.04251775175601
H           -0.11211888900030       -3.82701078210258       -0.16672128660647
H            2.06972666270025       -3.49838450853347        0.32934823285820
H            6.11458852579610       -0.99218275586726        0.53232230295560
H            5.86172039549498        0.69344797810870        0.12702137009161
H           -3.52489688815718        3.08625562641660        0.29981097610797
H           -4.52853619416118        1.66994046040430        0.45426995591737
