27
 energy: -51.746428426080 gnorm: 0.000536470053 xtb: 6.6.1 (8d0f1dd)
N            2.76910692562155        3.69105519790544       -0.00358479106238
C            1.96033431557498        2.87901601307299       -0.00199641866043
C            0.89092188276906        1.93579925695377       -0.00191504120937
C           -0.36618652077532        2.55922504478096       -0.00311978512491
C           -1.66841635554028        2.12465239586671       -0.00321470368523
C           -2.28953854810433        0.87185988322685       -0.00214978792516
N           -3.62182328812866        0.84778219437108       -0.00272356009849
C           -3.95663475885770       -0.46239609428429       -0.00149440594655
N           -5.22587203286057       -0.86896566764557       -0.00143166219372
N           -2.92242267485978       -1.31275146725587       -0.00013349037573
C           -1.82538941830442       -0.53710259043963       -0.00045729592698
C           -0.59241819284399       -1.16390918350671        0.00072100476612
C            0.71721777514312       -0.71223536307633        0.00083969860160
C            1.80327711442274       -1.61041040873049        0.00214380132064
C            1.77723761120085       -3.00139856789734        0.00310878037166
N            1.80583392728878       -4.15147198870978        0.00546113877651
C            2.98960595116639       -0.81842559782628        0.00197554861821
N            4.24820942562689       -1.26259462086222        0.00299588454572
N            2.69693606134528        0.48413932338513        0.00053862391793
C            1.36047720351169        0.61957255680447       -0.00026562339119
H           -0.27496237425434        3.64200105870592       -0.00423759112175
H           -2.41116237877014        2.91502045146771       -0.00435387718210
H           -5.42603983870168       -1.85242239124632       -0.00129527157607
H           -5.96164047697247       -0.18658505624596       -0.00332432202488
H           -0.68952110130133       -2.24613642264818        0.00182521864812
H            4.99636452928253       -0.59161610689383        0.00268591844077
H            4.44542853162124       -2.24772814227220        0.00408891679768
