25
 energy: -43.485223536414 gnorm: 0.000812641742 xtb: 6.6.1 (8d0f1dd)
N           -2.86620317429373        3.01504713703045        0.00411887634123
C           -1.99324643156686        2.27240161488215        0.00469343361456
C           -0.85190931765035        1.41785386420257        0.00402083518778
C            0.35329043210500        2.14352080825771       -0.00440455297529
C            1.68512833027518        1.81237618929483       -0.00888320563719
C            2.41877399710627        0.61902556417718       -0.00632051132445
C            3.81269713068919        0.62453336531405       -0.01166536156684
C            4.22832558696717       -0.71481613803002       -0.00558461820549
N            3.21368643334258       -1.55580578490921        0.00283063010614
C            2.06737405292942       -0.81552765530865        0.00243356529113
C            0.89957920864465       -1.53151438809925        0.00824159072757
C           -0.46092862536391       -1.20241010452279        0.00921985334825
C           -1.44691066672044       -2.17872570851970        0.01131687099196
C           -2.69580968631391       -1.50555968754342        0.01243321172000
N           -3.91815733147726       -2.05850736589585        0.04069344664638
N           -2.53277331289561       -0.18206046291213        0.01153304234894
C           -1.20746926501608        0.07227732027237        0.00951428921223
H            0.17397631206270        3.21505423925383       -0.00810300854190
H            2.33959224947564        2.67973214622935       -0.01550957592434
H            4.44760728577718        1.49004474982848       -0.01901538405840
H            5.24063226993235       -1.07942839406141       -0.00718582112375
H            1.08632465608096       -2.60140771434523        0.01262592683576
H           -1.30024865068909       -3.24138574597399        0.01233022161912
H           -4.71302233696765       -1.44775910039461       -0.03027755067086
H           -4.03851329243337       -3.04837285352667       -0.07298736596256
