31
 energy: -54.628290984163 gnorm: 0.000835108811 xtb: 6.6.1 (8d0f1dd)
N           -5.24814872372865        0.89785988653585       -0.04987119616235
C           -4.25324432676169        0.31699539928946       -0.03036570322994
C           -3.06648975880082       -0.40781291515992       -0.01252072815663
C           -2.99438580545257       -1.82268349278137       -0.00649372495182
N           -4.05475890007511       -2.65668586508167        0.02393264218056
C           -1.64373817385987       -2.17610532561996        0.00396293897478
C           -0.84174267396783       -1.02599473645049        0.00370773087559
C            0.53781568737085       -1.14818163706771        0.01024423442888
C            1.60344247819539       -0.26342976863886        0.00858045054957
C            2.93933787310264       -0.72877402961639        0.01279488094982
C            3.39452171871873       -2.03969684073767        0.01269549645176
N            3.80762180015340       -3.11522135352828        0.00928097418951
C            3.76781212310845        0.42848115571619        0.00687204889720
N            5.11125427471140        0.44025228247753        0.03721900216303
N            3.04500744822895        1.54644796239319       -0.00068437851083
C            1.73525621942549        1.20023538508960        0.00042069740264
C            0.84870489944160        2.25879409224698       -0.00444049614000
C           -0.53968916752439        2.42538186862910       -0.00730473610377
N           -0.94545215096265        3.73525800281945       -0.04887827973538
C           -1.60026826373339        1.50487595337445       -0.00904421839541
C           -1.75364072609868        0.13485725818568       -0.00685200287583
H           -3.91702460825170       -3.64439224584189       -0.09037019979384
H           -4.98064071034382       -2.28321694277419       -0.09119342006156
H           -1.26913734513470       -3.18321571767106        0.01116341377722
H            0.86312896796613       -2.18640130501416        0.01677397489698
H            5.58532385928785        1.31968570065727       -0.06155533361223
H            5.62286941858775       -0.41723226968003       -0.06901349016450
H            1.39532221172643        3.19740725384607       -0.00903116255391
H           -0.27202767542597        4.46734321402153        0.08544556133194
H           -1.91451699495174        3.96304061943264        0.08252286611286
H           -2.56588520335196        2.00805911754967       -0.01659639733403
