27
 energy: -51.737986237047 gnorm: 0.000689639380 xtb: 6.6.1 (8d0f1dd)
N            3.63052482485124        3.17848511283472        0.00727907793028
C            2.68602798052735        2.52734164161241        0.00565461113423
C            1.49112989333194        1.75376797855115        0.00344329525249
C            0.36386065013819        2.57003522698178        0.00301844578137
C           -1.00491546139927        2.36471849718382        0.00175354714089
C           -1.83006894516046        1.25135835374230        0.00143489381637
N           -3.15776608634783        1.46230563282670        0.00129096386428
C           -3.71225191789246        0.24480419770651        0.00160695855113
N           -5.02831275379268        0.04018521581426        0.00165248942788
N           -2.83383345687390       -0.78415694107841        0.00176279511726
C           -1.63052025241299       -0.21816225076962        0.00156272136183
C           -0.50715677608700       -1.06054893365369        0.00100662272330
C           -0.85936057392980       -2.44197026546176        0.00151896699826
N           -1.15674783492904       -3.54831142268696       -0.00120770097561
C            0.86528129265397       -0.84452348848150        0.00063285980056
N            1.62853938130347       -1.94672168174753       -0.00066996137031
C            2.91082088318669       -1.56185078321794       -0.00048135519257
N            3.90190291701238       -2.45783426036435       -0.00162518485223
C            3.02609652590132       -0.15042209715671        0.00126634064638
C            1.73843252915723        0.36310252081662        0.00186365804353
H            0.62798146201376        3.62445604134170        0.00392239071783
H           -1.59252982297618        3.27624493122544        0.00147094741386
H           -5.37291818328770       -0.90273170243584        0.00231474940701
H           -5.65218157005762        0.82623179221663        0.00184367775047
H            3.66332123367401       -3.43413787141070       -0.00354620113644
H            4.86313049515275       -2.16943348599264       -0.00243255123683
H            3.94448327704269        0.40297441590359        0.00185464878478
