25
 energy: -48.279520735314 gnorm: 0.000917229513 xtb: 6.6.1 (8d0f1dd)
N           -3.71447909279060        2.48874257262344       -0.30241724058811
C           -3.16864044201821        1.49190108022104       -0.12937994406204
C           -2.60665598154233        0.23527573482473        0.10980493188226
C           -3.30079129098757       -0.79072055355876        0.78767514481649
C           -2.51907312696694       -1.92528363792293        0.86357402248686
C           -1.31310683165900       -1.69029639209044        0.17587830168495
N           -0.57359803641359       -2.64324183964255       -0.29910792150693
C            0.59863675808674       -2.71787483943130       -0.85726629921554
N            1.69579923799963       -2.11160489394200       -0.50277050582866
C            1.95285910889338       -0.92169461964006       -0.06286455091407
N            3.16507489092059       -0.63287294349138        0.42546333585378
C            3.28121648169667        0.69717048069678        0.42756395329016
N            4.39816152074189        1.29986288810765        0.83961902458037
C            2.09504415787605        1.34812903738721       -0.03147730458371
C            1.17377986457363        0.35271315958454       -0.28131812918968
C           -0.21582933879149        0.58679408479996       -0.45869732150323
C           -0.48654510948273        1.95787712769666       -0.72570508690199
N           -0.60879294397631        3.06117933273270       -1.01171937730989
C           -1.30309710728913       -0.22974676562822       -0.19324313200069
H           -4.29790993330399       -0.68191592907405        1.17529507390798
H           -2.79940778984154       -2.87037741461501        1.28570149152858
H            0.72887342110508       -3.54012561149250       -1.55621876422402
H            4.50667822732313        2.29528358781005        0.76403258989155
H            5.16775760943381        0.72982920294808        1.14503971199982
H            1.95197350051363        2.40877851739845       -0.09918524409443
