27
 energy: -52.514177343529 gnorm: 0.000660769935 xtb: 6.6.1 (8d0f1dd)
N            4.93826546755133       -2.03275259360299        0.02376173296845
C            4.17467755413729       -1.17408614732927        0.01609776433586
C            3.21736691358305       -0.15923504671707        0.00711116731521
C            3.44129375744504        1.22096704616985       -0.00086049126944
N            2.30501209154388        1.90415535704776       -0.00809386804613
C            1.28154197607860        1.03202284045181       -0.00486703153991
C           -0.00003748855973        1.58350379405225       -0.00646536010883
C           -0.00015516804563        3.01217663453460       -0.01327994858437
N           -0.00021384392935        4.15631262357079       -0.01993523267680
C           -1.28156416683001        1.03188052691228       -0.00047176718522
N           -2.30509604646428        1.90388997631606        0.00247078918670
C           -3.44132336447345        1.22054292863639        0.00689488847380
C           -3.21725876888769       -0.15962438722770        0.00562017142086
C           -4.17445534478910       -1.17461810011626        0.00834553514054
N           -4.93796993654910       -2.03344586340623        0.01029623259836
C           -1.80032624529127       -0.34863131851293        0.00145705501568
C           -1.27921986833342       -1.62408939843266       -0.00196394422597
C            0.00017366868023       -2.20523407525912       -0.00210578411544
N            0.00027308629439       -3.56716493404749       -0.00473631082382
C            1.27948133988395       -1.62394872968907        0.00401680360318
C            1.80046967603712       -0.34841044330255        0.00355544332799
H            4.38901030452556        1.72720062050828       -0.00152482566458
H           -4.38907684438802        1.72669215906818        0.01077948826150
H           -2.06557494841295       -2.37745160819086       -0.00320230200007
H            0.86198776462312       -4.08315304901272       -0.00907986932346
H           -0.86152341432045       -4.08307240565380       -0.01478439029261
H            2.06591532259091       -2.37721461236766        0.00875755220864
