29
 energy: -55.953352937273 gnorm: 0.000618588905 xtb: 6.6.1 (8d0f1dd)
N           -4.93134893994293        0.57293922731987       -0.94368034201330
C           -3.85552458147440        0.80191971084093       -0.61249047976000
C           -2.54593877022667        1.16467287068499       -0.28445182458112
C           -2.08293827560548        2.49093195951931       -0.26528884008076
N           -0.78698619882014        2.55901602745947       -0.01639511901444
C           -0.30400575514579        1.30512354004513        0.05943875160962
C            1.05833222751220        1.18699426127198        0.32698003927885
C            1.68067312370277        2.42590596639111        0.66353005981788
N            2.18678567048573        3.40905949354186        0.95965746402085
C            1.96509878888876        0.12901249746530        0.21392993546908
N            3.25308949130907        0.42514889887393        0.36632260541003
C            3.97358434096674       -0.67574042630503        0.05113932575806
N            5.30977485235633       -0.64535245998921        0.12337739892382
C            3.13967389838429       -1.74312713079885       -0.30750249466882
C            1.81801252285601       -1.29426496850036       -0.18132151511588
C            0.75126018102702       -2.16418091817409       -0.32471722429824
C           -0.62899592241149       -2.14015616848537       -0.08984070093144
N           -1.21221371884213       -3.37507140199486       -0.09247230536357
C           -1.52194492158543       -1.04752127114378        0.08097031180759
C           -2.82923621903694       -1.45083995110439        0.46616981837038
N           -3.82971690192526       -1.82492707086728        0.88856770774232
C           -1.40812886776203        0.33687545651670       -0.09530964301729
H           -2.66467109930738        3.37846517626121       -0.43305728513632
H            5.86575311223845       -1.41969416408828       -0.18993605384875
H            5.74910866794522        0.22378998178831        0.37178298298459
H            3.45517072886321       -2.72900281712376       -0.58786902761320
H            1.09225376859173       -3.16437769479344       -0.58348369332415
H           -2.19588167871336       -3.47836276918023        0.08857279354429
H           -0.64233851902747       -4.20130577253377       -0.10244921067470
