27
 energy: -51.728977221705 gnorm: 0.000837085993 xtb: 6.6.1 (8d0f1dd)
N            5.11058058328203        1.12854977281537       -0.01521754650059
C            4.28294173739186        0.32925480065516       -0.00809646248011
C            3.24826082106850       -0.60678259261263       -0.00080176201475
C            3.39073763399793       -1.99386144232394        0.01035484856284
C            2.13159993891949       -2.58060595688278        0.01571412199033
C            1.13881818240472       -1.59095213946114        0.00729224726455
N           -0.11297305316349       -1.95334230574485        0.00716039654581
C           -1.25084533992661       -1.32450501490527        0.00076494976432
N           -2.37127905126652       -2.06145753001891       -0.00133507467579
C           -3.37963609143216       -1.18676442261907       -0.00529663201559
N           -4.65924426589008       -1.55186407517975       -0.00866164469874
N           -3.01489774678594        0.11807323032299       -0.00574753186907
C           -1.68494361297886        0.11637915508754       -0.00296300569138
C           -1.05453055095555        1.37313356080251       -0.00433025641959
C           -2.02123786611965        2.41596157443106       -0.00580919142166
N           -2.76089230760949        3.29420845656958       -0.00614526490300
C            0.28412140464749        1.79880734098721       -0.00628917562310
N            0.48522593651942        3.14219814114382       -0.00887580023837
C            1.48973817261522        1.04794024605490       -0.00679240157643
C            1.85410291071271       -0.26723563190772       -0.00209159611979
H            4.33184125992925       -2.51428953141681        0.01401486539669
H            1.91727709868298       -3.63131991424407        0.02397816787576
H           -5.36998551825560       -0.84263750592895       -0.01062631335250
H           -4.89006328116443       -2.52877831281411       -0.00736703809184
H           -0.29797049877088        3.77389365448047       -0.00862039369643
H            1.41574560397712        3.52045456983174       -0.01020155145680
H            2.35578473737046        1.70949163127779       -0.01063330675492
