27
 energy: -46.927504260889 gnorm: 0.000687916540 xtb: 6.6.1 (8d0f1dd)
N           -4.11716494029970       -1.68658574712465        0.80593822242831
C           -3.30123309759332       -0.91852071286329        0.54323681083367
C           -2.35625882844745        0.05278887728819        0.22517365809082
C           -2.64338584349067        1.42523452967548        0.03364060426673
N           -3.85899494512991        1.98847776540076        0.16336630477829
C           -1.44847598608007        2.07963830726135       -0.30278767418405
C           -0.38553981410726        1.17411569195523       -0.28761179407859
C            0.93314546549876        1.59512509056890       -0.36782327025265
C            2.15023830512989        0.98061006996762       -0.12927726773376
N            3.22807010726108        1.78346534796836       -0.08723351716178
C            4.28147836572681        1.03064119331870        0.25298613681165
C            3.94969694304740       -0.29846945245139        0.43065401702756
C            2.56488539790527       -0.41306066338279        0.17013365545619
C            1.93728541930990       -1.63362262487902        0.07258571175396
C            0.61100854953052       -2.01661495705917       -0.23091243229695
N            0.43923166441053       -3.31304201186385       -0.63305408801423
N           -0.52914280035468       -1.38285571101461       -0.09565053192987
C           -0.97609759467658       -0.16634812821649       -0.01710285639593
H           -3.99378929546361        2.96222573276201       -0.03822211408768
H           -4.65144342085703        1.41852095981115        0.40104164750952
H           -1.35927344103300        3.13186589399402       -0.50253190299395
H            1.05343939124431        2.66117763491507       -0.53521404625378
H            5.25143272299738        1.48421193322938        0.35923947373955
H            4.61093713546397       -1.10255758021318        0.69075097984234
H            2.60065428771939       -2.48019423004682        0.22705025605007
H            1.18185546104486       -3.98144891299384       -0.53117185757812
H           -0.50713254585731       -3.65298009481044       -0.66598847402507
