28
 energy: -51.435982790996 gnorm: 0.000661915710 xtb: 6.6.1 (8d0f1dd)
N            3.78615659687684       -2.30634092732243        0.20373020558975
C            2.72518523960104       -1.87122991863927        0.12264840850039
C            1.40204070685078       -1.36109351643461        0.04274674777614
C            0.42233724888389       -2.37198791486024        0.02567859806950
N            0.88989598920664       -3.65715743429195        0.08365593606761
C           -0.98377016866100       -2.30713624963254       -0.08938576564986
C           -1.96228935964244       -1.34847046608031       -0.08232741648908
C           -3.33533455781687       -1.71393353502369       -0.16323840789111
C           -4.06716938266862       -0.55719258072154       -0.05318552739541
N           -3.28345054705428        0.53145649562244        0.08101804287369
C           -2.01605493666827        0.12699281875965        0.05785960717599
C           -1.03033988655313        1.11780581972348        0.12067311388806
C           -1.56857413625069        2.43505782561928        0.23535901495136
N           -1.99606190836229        3.49204556748221        0.34127143029636
C            0.35899350234725        1.10879492454830        0.04239205992581
N            0.94125864480091        2.31675375740098        0.02226321437318
C            2.26497340922024        2.13720648856317       -0.07120824344056
N            3.10131865830017        3.18040710315660       -0.12895014998061
C            2.59554991290420        0.76470330159338       -0.09069966451279
C            1.40365153591615        0.05232680949047       -0.01950099231593
H            0.24869296834812       -4.42745079098933        0.12495348529331
H            1.87035885166484       -3.84546967420562        0.19432377354561
H           -1.40984302954714       -3.30489899356857       -0.17870634121041
H           -3.71172749979061       -2.71239752338433       -0.27440612312784
H           -5.13601646148930       -0.44335481585606       -0.06404719076347
H            4.09177549609153        3.04769950421346       -0.21589621038045
H            2.71061176353097        4.10574642521939       -0.11299208379729
H            3.58900662986157        0.36667443431724       -0.15354461067201
