23
 energy: -44.810527140689 gnorm: 0.000997243842 xtb: 6.6.1 (8d0f1dd)
N            4.27432922679774        0.05723743991588       -1.38714354831012
C            3.31896237656550        0.42825038980350       -0.86846030009778
C            2.16195775091987        0.95646109387523       -0.28490412508027
C            2.02858624385233        2.30968906621665        0.10854710255074
C            0.73670077491275        2.54492418668400        0.51616035345292
C           -0.04059845338703        1.37358203119139        0.33206718283428
N           -1.32666252156515        1.42288003482719        0.35844180195919
C           -2.31842264635924        0.61293444788633        0.14217882377924
N           -3.52060834013197        1.12585418140879       -0.14578515024591
C           -4.32645827521679        0.12083850195894       -0.48465488613142
C           -3.69316685983867       -1.12032200543183       -0.45430752152273
C           -2.38544976643849       -0.88760453156277       -0.00398942463411
N           -1.51106989922243       -1.83784087674705        0.17946739406957
C           -0.25701761447887       -1.94371089253663        0.43501952749420
C            0.85322708137261       -1.07846498711173        0.18245404260843
C            2.07924789625494       -1.79274789010098        0.25772090220740
N            3.02671711525661       -2.42391315368113        0.39156500106621
C            0.93945052289294        0.28674691925147       -0.05092066078654
H            2.82685061500498        3.02858306443192        0.06906723730693
H            0.32579233969509        3.47671164475617        0.85272854808189
H           -5.35314805011685        0.32052590151000       -0.73410740623855
H           -4.12476090959101       -2.07949134214340       -0.66123554269760
H            0.02891806056429       -2.94215632968041        0.76180093561752
