27
 energy: -52.529722884053 gnorm: 0.000920846814 xtb: 6.6.1 (8d0f1dd)
N           -4.07761882446047        2.61384637000064        0.31139821680371
C           -3.69880632452901        1.54253473162069        0.13940094555510
C           -3.23761392185594        0.24034974201751       -0.06416658638418
C           -3.97571041232065       -0.80178662654133       -0.68468334670560
C           -3.21050411500650       -1.93945617533498       -0.73908935818368
C           -1.97750097704839       -1.69496683937310       -0.07798089595825
N           -1.22890682745952       -2.65117346713149        0.36292361897557
C           -0.05837937101006       -2.70453999094163        0.94381598087030
N            1.02247250163170       -2.04891804109724        0.64784397452965
C            1.27621436083659       -0.84223775103655        0.22946794225945
C            2.56249365620857       -0.45535294278955       -0.21829822708159
C            3.60955227751289       -1.30679347022301       -0.57753252894337
N            4.49956970812252       -1.96080521950393       -0.89493111201006
C            2.65794797437638        0.95209250325063       -0.17849240396336
N            3.73494689094809        1.68297879793320       -0.48615149169741
C            1.40037235751450        1.46812873387784        0.24739039074738
C            1.13782884227334        2.82982869060579        0.39794916862452
N            0.96731681915443        3.96103366409816        0.51374938052674
C            0.48984821412768        0.40411916537194        0.41985416519137
C           -0.88192518469403        0.61316648975970        0.50270705549353
C           -1.94900286093237       -0.23386058457170        0.25330667017831
H           -4.98048496154335       -0.69130869174909       -1.05115418363329
H           -3.50263340068821       -2.89599759950203       -1.12619751945811
H            0.08461387164882       -3.55162789814924        1.61014258962864
H            4.58191342037602        1.23104243121743       -0.78649517385933
H            3.71632988299590        2.68332960790876       -0.38231182760022
H           -1.16060995497627        1.66162597447972        0.58203810779441
