26
 energy: -52.790951367707 gnorm: 0.000856875503 xtb: 6.6.1 (8d0f1dd)
N            3.83201395279705        3.19903106627758       -0.15434469244474
C            2.98107822664955        2.43246409063473       -0.13308263637220
C            1.89752724786997        1.51649488645918       -0.15396153761982
C            0.67756377256333        2.05273774318496       -0.59690196240068
N           -0.53698527148299        1.66534023199506       -0.37629616777529
C           -1.24043624468297        0.61463754669794       -0.12490335383345
C           -2.61609153595014        0.70484961048570        0.20894710502213
C           -3.30972915542009        1.86076568037287        0.57181399409655
N           -3.92786812478045        2.77905542483949        0.87940340866334
C           -3.20778196823515       -0.56905877879850        0.04769465386232
N           -4.49899908446316       -0.85686529219012        0.22982162907489
C           -2.19762369682908       -1.48473136692337       -0.33742396107374
C           -0.97044397268121       -0.84185343264981       -0.35657055115305
C            0.25584052752728       -1.51990154522049       -0.33389792687769
C            0.15969157945702       -2.93363596269872       -0.48175131642483
N            0.04254841361108       -4.06077439364923       -0.64982769309827
C            1.54201656102607       -1.09894436552829        0.00856041734955
N            2.45704573344568       -2.04790240841109        0.28096184502060
C            3.54674064141408       -1.39414633966249        0.66361403559305
N            3.46508564542761       -0.06564527735183        0.63492917289786
C            2.22202225924859        0.20851550160068        0.21812093658191
H            0.73360969435832        3.02931618215564       -1.07385996655778
H           -5.13804182976638       -0.14202325690452        0.53564523593521
H           -4.84453436101248       -1.78603606018574        0.06336950740422
H           -2.36083639372053       -2.52823010501304       -0.53370599943910
H            4.43881765413250       -1.90417829051908        0.97437579966949
