29
 energy: -55.969701360963 gnorm: 0.000797777393 xtb: 6.6.1 (8d0f1dd)
N            5.09654245021717       -1.59975002874759        1.32685332415410
C            4.30005688196352       -0.85914054471625        0.95583775906981
C            3.33508431993642        0.04151915473691        0.50849450543925
C            3.48557942862988        1.43395411120389        0.32313983087353
N            2.40015568973448        2.01013884175100       -0.15134955787916
C            1.43824759579013        1.05894332471144       -0.24841920344123
C            0.13111705399081        1.47057398768977       -0.43356745133087
C            0.03235570149189        2.86528731183990       -0.71036024932321
N           -0.08326512274651        3.97427287108901       -0.97395466411759
C           -1.11505327330980        0.82463637934382       -0.23397762083550
C           -2.28956804986544        1.55345612268626       -0.18044640529586
C           -3.37632771481228        0.71653083538464        0.18788344539366
N           -4.64811985698413        1.11300290524420        0.34142156722582
C           -2.87460205322313       -0.57866230125234        0.35615102611972
C           -3.63113970172845       -1.69853422129170        0.69134993205565
N           -4.26985556743966       -2.61553299253325        0.96621012750375
C           -1.46832266412236       -0.58444555570091        0.05829776788990
C           -0.81522922452865       -1.77312794324274       -0.06514665393378
C            0.52653273939021       -2.10764921300077       -0.44815702685915
N            0.68508311886490       -3.31057748229091       -1.04996600572284
N            1.62956165488427       -1.48423667452790       -0.17276964272177
C            2.02882114743310       -0.26767357707689        0.07336623500142
H            4.37217936171088        2.01002549751873        0.51835601016518
H           -2.37630983638333        2.60943066487048       -0.35748749511780
H           -5.35342944446275        0.45623847470350        0.62664233451117
H           -4.90289368486697        2.07289451994393        0.19290361735794
H           -1.43426677196486       -2.64604509318025        0.12130164573343
H           -0.08192938571833       -3.95270595321785       -1.13667874384313
H            1.62187547232024       -3.64129974993815       -1.20852504986921
