28
 energy: -56.243512575601 gnorm: 0.000281056175 xtb: 6.6.1 (8d0f1dd)
N            0.61767889919591       -4.72664448010904        0.05720494104881
C            0.87211711834199       -3.60715921698424        0.03413140344544
C            1.33215285644235       -2.28763825186942       -0.01950537515266
C            2.69780144470963       -1.97312207777418       -0.18721205367129
N            2.90745919919325       -0.67564397752899       -0.22786646087796
C            1.71309645409428       -0.04417201552230       -0.09663327045958
C            1.83843874107387        1.33707640871456       -0.03899743166808
C            3.21832483561916        1.69627547431310       -0.13615344327293
N            4.29644141113714        2.08170422312352       -0.21160968536949
C            0.96066618832054        2.45506373434787        0.09394051016490
N            1.57124155399417        3.65755634452477        0.25090488220630
C           -0.43083450281413        2.50961525435013        0.04282215121151
C           -1.47394567158512        1.60436903319053       -0.04241822636466
N           -2.71063712321778        2.11811164176986       -0.12413667431089
C           -3.54142187871986        1.06392929383530       -0.12185287835784
N           -4.86329370423506        1.17549614557259       -0.20772233639818
N           -2.93275250174762       -0.13544430883959       -0.01969149747052
C           -1.62696697226344        0.12902753325879        0.01717295909101
C           -0.74850826747538       -0.95976052205699        0.11736908187353
C           -1.47205835547796       -2.17257316783973        0.30679934476985
N           -2.09037134595288       -3.11691664916274        0.50167716758196
C            0.63660595278352       -1.05759934301788        0.02158116387690
H            3.50916609080482       -2.67194582309568       -0.27709903697819
H            1.02159948473138        4.49720179043121        0.29148725097348
H            2.57442437191999        3.73300808327176        0.24645968768351
H           -0.82324217273488        3.52231609462502        0.06504274842821
H           -5.42239850790471        0.34120475771278       -0.19095027977487
H           -5.28239665303359        2.08446473305837       -0.28423356802859
