25
 energy: -49.061810177598 gnorm: 0.000892346760 xtb: 6.6.1 (8d0f1dd)
N           -5.01337892393699       -1.07587616138105       -0.07915734201390
C           -3.87729026102577       -0.93377327866045       -0.04613831320999
C           -2.45575575505819       -0.80913007632670       -0.00668541471562
C           -1.83403908894624       -2.04769821217872        0.05281150719083
C           -0.50867414618961       -2.46933412136662        0.07772738310930
C            0.73654626427528       -1.87265656902273        0.04074796900946
N            1.77213323558693       -2.75808909575808        0.03023788619450
C            2.89192088743983       -2.08358941628740       -0.02441286199455
C            2.66830876788541       -0.68060699491256       -0.03568305667333
C            3.72783988731048        0.23024183080458       -0.11405062986544
N            4.68273409641604        0.86113205817512       -0.19995595018861
C            1.27076661937315       -0.50204755716034        0.00841810154147
C            0.64633591896121        0.75602888827950        0.04316756113687
C            1.52715224311682        1.88062463074191        0.11903990008881
N            2.23613799443538        2.77475790361866        0.20875319831945
C           -0.67970869913568        1.17107896759117        0.02317096545346
N           -0.84575905036072        2.51713422877201        0.02661323796188
C           -2.13730783513023        2.77504080637397       -0.02694339962094
C           -2.90336675865520        1.60022263049730       -0.05986535066300
C           -2.00898298669451        0.52719282243763       -0.02400007805298
H           -2.54118935929032       -2.87142483875463        0.07389557379564
H           -0.39710181375662       -3.54849698793120        0.11440087958111
H            3.84732106487079       -2.57463868383135       -0.05499483692726
H           -2.49280004433825        3.78864654396886       -0.04039019252535
H           -3.97364350185241        1.54039503561144       -0.09959469543205
