27
 energy: -57.290125353690 gnorm: 0.000648968817 xtb: 6.6.1 (8d0f1dd)
N            4.80732236141963        0.40459081863156       -0.92655519533044
C            3.84141581871423       -0.11801562619555       -0.59375985600120
C            2.67807655842366       -0.82544142633498       -0.26662876984904
C            2.57936570449200       -2.23195291265949       -0.28271053520967
N            1.35932773621877       -2.64204545407934        0.00030083380990
C            0.56106880248858       -1.56323135499359        0.10849517239204
C           -0.79222815935577       -1.80846952575793        0.29569336022096
C           -1.11784622361021       -3.16488448635689        0.58974935484084
N           -1.38602341261394       -4.24143739390481        0.86911958418261
C           -1.90505786797813       -0.99084753524303        0.05976124591133
N           -3.11104112415182       -1.54892333164208       -0.03496817047367
C           -3.92733334918726       -0.57281756855557       -0.45947288776499
N           -3.36337837802335        0.60600711998799       -0.62978911300115
C           -2.06206892160152        0.44024605891797       -0.28590446880254
C           -1.29420729771351        1.58861359805298       -0.17412341112554
C           -2.04343074579120        2.74920866567407       -0.52830597928604
N           -2.59341347236727        3.71250025731608       -0.81711947496925
C            0.01490721447614        1.86574559816387        0.32049747626829
N            0.20683064017789        3.13482598171781        0.74489210670613
C            1.14597233313037        1.01184134475382        0.32915924142511
C            2.33037992318339        1.67222110428051        0.76621627462212
N            3.23468790644383        2.22170291244245        1.20886367863258
C            1.37680505113136       -0.33011722796527       -0.01390184366819
H            3.36691918873491       -2.93071956225960       -0.49609619054582
H           -4.97019537934016       -0.74630682510829       -0.64426023876242
H           -0.54183267187513        3.80603660607661        0.68702808643288
H            1.12301221867414        3.45670876964025        1.01306014384565
