25
 energy: -47.493916817664 gnorm: 0.000845740856 xtb: 6.6.1 (8d0f1dd)
N            5.05875329312986       -0.62589675052168        0.58067154627176
C            4.11316738059745        0.00445068347186        0.39780621653724
C            2.94381033564911        0.73139043762641        0.18113174320847
C            2.81139498020715        2.10743811136787        0.10201586898949
C            1.47526466196147        2.42880452754710       -0.16984049910203
C            0.72163021257050        1.26743090272547       -0.30093121448642
N           -0.56097435315643        1.34770779811899       -0.59226217741453
C           -1.61595228413693        0.64603926828876       -0.45783071688685
N           -2.86221642068186        1.09477263272808       -0.65920059041819
C           -3.63057011311522        0.30852237343138        0.10119143504134
N           -4.93903553366782        0.51267151914830        0.23527525285578
N           -3.02218607388149       -0.73359379985157        0.73322374698533
C           -1.77679260863200       -0.69523798204404        0.29915816261932
N           -0.96299596603923       -1.68862003817804        0.26045789947792
C            0.26242366207889       -1.98625526432578       -0.04866946374533
N            0.45199807353271       -3.25249509610305       -0.49797339956547
C            1.45349455100151       -1.20751396984390        0.13945067215994
C            1.65051083885826        0.12525294449204       -0.02744236264189
H            3.61263637655216        2.81481740062936        0.22029987987855
H            1.07709871605002        3.41871365748854       -0.28252063506405
H           -5.36486576568242        1.28471880375909       -0.24460856705669
H           -5.45958298694265       -0.06023046082680        0.87426356347611
H            1.37117982915270       -3.60075063059705       -0.69875309830826
H           -0.34480097575902       -3.85633649310995       -0.59613302253882
H            2.34125035574172       -1.79088514670875        0.36390791722877
