28
 energy: -57.029771564986 gnorm: 0.000300986344 xtb: 6.6.1 (8d0f1dd)
N           -4.62669752446138        2.04549349866795       -0.29221118293090
C           -4.07893352159952        1.05163998719757       -0.11813975627614
C           -3.44361582891883       -0.17440331884070        0.10121127588687
C           -4.07077180780710       -1.34309871771668        0.60013511966843
C           -3.15643249056022       -2.36689401013446        0.68171446029386
C           -1.91332077921400       -1.92601259895992        0.16273076670855
N           -0.93927158259853       -2.72490064560324       -0.09830717744298
C            0.29168058324457       -2.67577707971617       -0.49811870514938
C            1.29820108582244       -1.71822271255733       -0.25371039579901
C            2.59980743165409       -2.25301287460409       -0.43827705566544
N            3.61668677460318       -2.73634857638798       -0.65391531406514
C            1.21650421589324       -0.35029328875870        0.03216103073132
C            2.35014505336539        0.43602144577996        0.30440457070537
C            3.61580140844429        0.02836326624435        0.73901009123868
N            4.66774338135869       -0.18993427402838        1.14625958372217
C            2.03382196514981        1.81461063995011        0.13019938964671
N            2.88569673304900        2.83213783192765        0.27023782293064
C            0.66593563357344        1.90321755760158       -0.20579321321822
C            0.00363928951754        3.10962207134207       -0.44863466875760
N           -0.46704156562142        4.13859416516311       -0.64466684806023
C            0.08833353396845        0.60700402213490       -0.19805844721281
N           -1.20646406372604        0.50257758151434       -0.27086095583433
C           -2.07772915637376       -0.44923175528841       -0.11884024712535
H           -5.11078894025559       -1.39992855310288        0.86685643022185
H           -3.34250594647214       -3.36816060341187        1.02050597764281
H            0.63245553789165       -3.60459597733829       -0.95003422415821
H            2.57389376336655        3.77714222648122        0.11963070927188
H            3.83957569359991        2.66033222484436        0.54251261812702
