29
 energy: -55.952161740855 gnorm: 0.000848195952 xtb: 6.6.1 (8d0f1dd)
N           -4.74468864532831        0.66112587623985        1.60800611165448
C           -3.81322711409436        0.89566895963902        0.97653508583760
C           -2.71027914896748        1.29518718745212        0.21876763139072
C           -2.69392428060402        2.46752561647262       -0.54712930392722
C           -1.43497829237388        2.65923086859986       -1.10063047646867
C           -0.57522459886255        1.64839805376228       -0.64799340471578
N            0.71329961516486        1.79756556847859       -0.65910607025282
C            1.73789458052799        1.14158401120305       -0.21488123316785
N            2.86500744725394        1.82473847447424        0.03616035486604
C            3.80583320880235        0.93372490693656        0.35746029885162
N            5.03952923777065        1.31507153777683        0.69714156263027
C            3.32421013527283       -0.40703740695970        0.28439671146266
C            1.98897248900305       -0.32630900016189       -0.03703095707924
C            1.14847246373504       -1.44768273180781       -0.25344730690906
C            1.89865046789326       -2.63893233892517       -0.42068828269169
N            2.51634277966580       -3.59744671212772       -0.56149979704345
C           -0.23622828513688       -1.62605519142224       -0.26426902793258
N           -0.69104908283442       -2.84848355406104       -0.65373396894209
C           -1.28102538164562       -0.71791518636798        0.17081517824392
C           -2.39353365258124       -1.43837155217475        0.68960218107170
N           -3.22794281254030       -2.09388681188316        1.12630943424132
C           -1.44719069762980        0.64173195879024        0.05589567295513
H           -3.53752113570242        3.12509732646455       -0.65821213529671
H           -1.11719499466439        3.49824306427182       -1.68758565235073
H            5.74869793027126        0.64050464255416        0.91996863640479
H            5.25315789561238        2.29704325741609        0.71202911654310
H            3.90781340950335       -1.29084319622679        0.45527580911546
H           -1.65623908112277       -3.09924255159030       -0.51866548666594
H           -0.03107791469378       -3.59133287562303       -0.81878188592692
