29
 energy: -51.171376773311 gnorm: 0.000564307734 xtb: 6.6.1 (8d0f1dd)
N            2.27466672811024       -3.32879486256714        0.00452856997073
C            2.23001133119893       -2.17953343987004        0.01006652090600
C            2.29463074563140       -0.78647004006657        0.00999128220303
C            3.51294433276739       -0.06337803540269        0.00337377613486
N            4.74130833980082       -0.61689579431319        0.03287920547277
C            3.20197798347835        1.30078606841846       -0.00502508387008
C            1.81562099273025        1.48686372853541       -0.00296071808006
C            1.28005655308375        2.77014466324245       -0.00510870087609
C            0.00011204923096        3.30315365042780       -0.00128472783201
C           -1.27986610717461        2.77023709527861        0.00383007578176
C           -1.81551764300315        1.48699024921855        0.00423499201188
C           -3.20188252770487        1.30101050452426        0.00705433964687
C           -3.51294839943598       -0.06314361919017        0.00079741645863
N           -4.74135450259317       -0.61662344956782       -0.02757349078550
C           -2.29468574148474       -0.78632966027465       -0.00511165447773
C           -2.23023651432733       -2.17939005541573       -0.00296650481359
N           -2.27518708728725       -3.32857959484380        0.00427039676633
C           -1.20992421058383        0.12497155515905       -0.00126231701611
N           -0.00001059573767       -0.35777676451515        0.00194768479497
C            1.20993755287967        0.12490154886659        0.00448978188789
H            4.83330272109756       -1.61522082210778       -0.04215781633137
H            5.55858087023613       -0.04351559082401       -0.07333912377955
H            3.92831854054299        2.09424976644169       -0.01167813812923
H            2.05552922282562        3.53169810840125       -0.00861511633026
H            0.00014751196192        4.38843692724891       -0.00245687381327
H           -2.05528741462549        3.53184835336140        0.00600164287891
H           -3.92817101231288        2.09452903704456        0.01276968269702
H           -5.55855150165855       -0.04305800206914        0.07830761314256
H           -4.83337827184641       -1.61482796974114        0.04901230878062
