25
 energy: -48.281080831032 gnorm: 0.000809017149 xtb: 6.6.1 (8d0f1dd)
N            3.65511569017210       -2.44962268751200        0.74064053188745
C            3.12844304830634       -1.47818010494332        0.42631004713265
C            2.60754242919629       -0.23466540604226        0.05320515542315
C            3.42013665725760        0.79031080731260       -0.50366463543340
C            2.67503244447779        1.92415672667285       -0.68988096161009
C            1.36515323444100        1.70732603658239       -0.17792589514077
N            0.59661567889793        2.69667929703755        0.10302578047932
C           -0.59994824985483        2.95689523428716        0.55367333071087
C           -1.79586767995543        2.28392436045852        0.37486754541921
C           -2.04490935772332        0.95870482761228        0.03168234775192
N           -3.30684043497680        0.57126342164573       -0.18197180683870
C           -3.25941558469355       -0.76786219847897       -0.28125621264487
N           -4.33381542333534       -1.51820729641871       -0.51215674259038
N           -2.03321951079433       -1.30496111821140       -0.12175193014205
C           -1.21071687810802       -0.27027595832163        0.05699527974299
C            0.15908852776025       -0.56077649242200        0.22976644666473
C            0.37107344265945       -1.96884915768221        0.30271770793876
N            0.51163489499499       -3.10277465487352        0.37902483021839
C            1.28843836178209        0.24332096128048        0.16439163769223
H            4.46476225649919        0.66775301709879       -0.72640975243539
H            3.01729349446286        2.86800315965898       -1.06727932003090
H           -0.66594261393788        3.95089596969677        0.98957839328037
H           -2.69886870665512        2.86393084661271        0.51711515748244
H           -4.23035856902038       -2.51631645586242       -0.55124447642196
H           -5.23134420515018       -1.08027669818875       -0.61244630843635
