28
 energy: -56.237543116182 gnorm: 0.000863796829 xtb: 6.6.1 (8d0f1dd)
N            4.73137226413011       -0.35183499220740       -1.74598780373120
C            3.83582329291217       -0.66474759607449       -1.09777377378455
C            2.77013376697974       -1.16312760064783       -0.34273646393277
C            2.82395848164965       -2.41620766491680        0.31346280422914
C            1.60633745399515       -2.70323029151516        0.88491796421096
C            0.68020417202979       -1.70280306102745        0.50719016951947
N           -0.58465323405388       -1.92784491935328        0.52570960973844
C           -1.65080658280664       -1.30016609785962        0.11899390079926
N           -2.75961488531647       -1.97042317424414       -0.18525697312810
C           -3.69981985176832       -1.02538546903329       -0.36913807969681
N           -4.95029836840088       -1.31778020717685       -0.70660780209518
N           -3.28763817541206        0.24746419413591       -0.18169292092854
C           -1.98554914893061        0.15884586093787        0.07217461620418
C           -1.23341030156263        1.32305156047769        0.26044693739922
C           -2.07879108576051        2.46265848678022        0.34758950769105
N           -2.73747957785100        3.39774827766327        0.43929171954911
C            0.14933831374207        1.60189676334796        0.28751925638701
N            0.47471128560237        2.86815640802700        0.64668191258263
C            1.26137900476617        0.77521107969493       -0.10182190510964
C            2.41201631028289        1.55982853186244       -0.40122135189401
N            3.30098355930257        2.24963313602873       -0.62690594856645
C            1.49318913335458       -0.59328160766402       -0.12392339820531
H            3.69907860574865       -3.04056251315177        0.33563667963665
H            1.33194219710640       -3.60006675721630        1.40433993706115
H           -5.21322629357482       -2.27924055356274       -0.82966184452142
H           -5.61997804112566       -0.57443861757836       -0.79556798875816
H           -0.25741091253258        3.54063505098502        0.81049238309127
H            1.42101193529207        3.20107977638872        0.56295836555312
