30
 energy: -60.471660369309 gnorm: 0.000974272295 xtb: 6.6.1 (8d0f1dd)
N            0.84098593754449        4.78748033334366       -0.98818984857211
C            0.13691646402506        3.94255379747886       -0.65803402182851
C           -0.75285710320013        2.93790128048930       -0.27454540779126
C           -2.11343141341260        3.10120685471339        0.05802259976261
N           -2.69728879542318        1.96494402843276        0.38659053090384
C           -1.79004330152820        0.96911010853869        0.24071517271236
C           -2.29243162184810       -0.32164869335995        0.25761542298815
C           -3.68921663382306       -0.30518229927789        0.54973876391558
N           -4.80514482957891       -0.35427862686685        0.81059371911379
C           -1.77260048447784       -1.61761366361652       -0.05262719414989
N           -2.72778883416442       -2.57141026454454       -0.20335037033515
C           -0.43563641128035       -2.06114122937566       -0.19429254231055
C           -0.34717655872000       -3.46847625428876       -0.38575141426064
N           -0.28560981439126       -4.60298668012882       -0.55478851369809
C            0.84555966376795       -1.47512665527114       -0.11774443568040
C            1.99260963241863       -2.25978123522389       -0.10341912084366
C            3.13677298331493       -1.46303896235079        0.10955374136632
N            4.39638677649285       -1.89645444324229        0.21541792339631
C            2.72031207146047       -0.11434623748421        0.19179671761960
C            3.58526084146575        0.95995020305007        0.40455000890326
N            4.35933321462474        1.78650264296449        0.59929650541576
C            1.31496491341674       -0.05490777319858        0.01686670296434
N            0.74570893890289        1.09964289539360       -0.09191896391392
C           -0.46839648691603        1.56300937262452       -0.09377224739163
H           -2.66246340198393        4.02523181884418        0.07585846286035
H           -3.69777948190005       -2.34311237718638       -0.06302779598723
H           -2.47619129291053       -3.53050092390435       -0.37324873787512
H            2.02623123782566       -3.32682362069627       -0.22167510031069
H            5.14248383088994       -1.23905585262754        0.37059182919510
H            4.61329620379242       -2.87237975002098        0.11058471023178
