24
 energy: -48.550599838369 gnorm: 0.000715682853 xtb: 6.6.1 (8d0f1dd)
N            4.83835646290074        1.21475741478996       -1.36193067433925
C            3.95586772629961        0.60886744744649       -0.94666039110983
C            2.88061774065767       -0.13890034895790       -0.46421872058196
C            2.80762624505263       -1.52468852077977       -0.31575242258920
N            1.64141476250000       -1.94244431084783        0.18537775843224
C            0.87342278396835       -0.87320863101031        0.39109336747802
C           -0.50539505404251       -1.02456783130246        0.54221951248753
C           -0.94825923518498       -2.37401860791037        0.64099736920132
N           -1.31256715470501       -3.45162270467823        0.76687426745584
C           -1.54248101097460       -0.09888520085377        0.34101353129955
N           -2.75158454760107       -0.55279628603075        0.06054696958606
C           -3.49112200975743        0.49311344076371       -0.39996193203384
N           -4.75171952573496        0.28689046923280       -0.77835003969742
C           -2.76600771986012        1.69581169478268       -0.39832453936868
C           -1.52444584050721        1.40531761887786        0.15729964066823
N           -0.70535569113366        2.29589126443950        0.64964981884498
C            0.53130633988337        2.26138118405589        1.03821890688258
N            1.52008401152060        1.58172992227008        0.51655319265973
C            1.67755432348495        0.37253258748655        0.10825669736416
H            3.57421369907118       -2.23739925196691       -0.56182818791280
H           -5.13566946431149       -0.63718967383062       -0.67658235714171
H           -5.30920681597574        1.02758661963715       -1.16432779123229
H           -3.12390162144915        2.66447429913327       -0.68005071284227
H            0.82995121419888        3.04572845945402        1.72832197298962
