23
 energy: -40.032767203580 gnorm: 0.000628105666 xtb: 6.6.1 (8d0f1dd)
N           -3.61977440137101        2.23212252642480        0.00394540557162
C           -2.63351050683497        1.64986542572836        0.00383346093216
C           -1.34963486546133        1.02269200634562        0.00197605801533
C           -0.30492193146278        1.94737185611635        0.00245575055800
C            1.07477844810722        1.84395970984854        0.00165294085389
C            1.99572306432794        0.80472553932389        0.00007300318651
N            3.28960917239900        1.18408328439914       -0.00016028413488
C            4.04103035184949        0.08576255122983       -0.00171300662415
C            3.27363121783330       -1.07327097706710       -0.00258524833094
C            1.92524282527467       -0.66976707689697       -0.00147959540037
C            0.89137523307761       -1.59081103829362       -0.00192937430641
C           -0.48883377315781       -1.49250914659479       -0.00110195568366
C           -1.31160892942279       -2.63738651562130       -0.00186815633292
C           -2.62637019479583       -2.19285515902121       -0.00069311081030
N           -2.70206486813629       -0.86202546942399        0.00074966551217
C           -1.44976072174838       -0.37385136480582        0.00056305186375
H           -0.66123951906520        2.97299774453477        0.00376075574596
H            1.59166749350110        2.79840144078530        0.00243973349843
H            5.11341552628978        0.16324413919529       -0.00215035839793
H            3.63279373945133       -2.08454673479076       -0.00384833780534
H            1.24167270033975       -2.62061000377034       -0.00320882821825
H           -0.97551003872358       -3.65636304326888       -0.00311127102053
H           -3.52415011427128       -2.78352566647710       -0.00082669827212
