22
 energy: -40.311814074205 gnorm: 0.000313541714 xtb: 6.6.1 (8d0f1dd)
N            3.64056524159447       -2.29874059821166        0.00057460049062
C            2.64541983037944       -1.73117706996618        0.00026369519315
C            1.38027611564266       -1.06808807227612        0.00058935806879
C            0.33465643524456       -1.99305273514335        0.00068827865638
C           -1.04702119689019       -1.90554138858250        0.00077309332404
C           -1.96000851371923       -0.86293047174482        0.00061097160694
N           -3.27286278428363       -1.18826497249244        0.00071926050299
C           -3.92075612747107       -0.03430771822128        0.00042104692604
N           -3.15581291509080        1.06041440110593        0.00008648142636
C           -1.89238538974583        0.61169229278138        0.00020940151130
C           -0.86177179026848        1.54573727171250        0.00000171810927
C            0.51080332573502        1.45036506211424        0.00020231691656
N            1.18418343220666        2.62029023052966        0.00003350001373
C            2.48084353435655        2.34901636866268        0.00031297544556
C            2.73459460026869        0.97583218098554        0.00059830613204
C            1.49068069823697        0.33122820252335        0.00051064390254
H            0.69468207510335       -3.01819404543468        0.00077134773487
H           -1.55614062255932       -2.86399672144309        0.00093615632307
H           -4.99352085606983        0.02158172115971        0.00045080395338
H           -1.21708437301139        2.57106588378039       -0.00033023356226
H            3.20429537708235        3.14420596218497        0.00029595190313
H            3.69935814385908        0.50694025287568        0.00083039842148
