26
 energy: -48.001534979227 gnorm: 0.000826110305 xtb: 6.6.1 (8d0f1dd)
N           -3.32926644233348        2.38247282719040       -0.07273057955489
C           -2.65205792476789        1.45369694628499       -0.03792608149124
C           -2.06013120490813        0.18688034178627       -0.00788210252356
C           -2.90289475814059       -0.95930430334600       -0.01685909600020
N           -4.24324122716554       -0.92692220209610       -0.04729180738580
C           -2.07662460468383       -2.08624154089467        0.00597803369884
C           -0.72988663090355       -1.70641066278398        0.01903704663196
C            0.23222925527064       -2.71627981258982        0.04648840337346
C            1.61387226892434       -2.81592727067898        0.04301226062185
C            2.65177097008322       -1.90130810921379        0.00254152958771
C            2.70924745138697       -0.51726963068161       -0.02671041964693
N            3.93302133789338        0.05385734341892       -0.06583369110303
C            3.71427643157831        1.36081153586388       -0.06423722309600
N            2.43620203282771        1.73029224341246       -0.02252051904290
C            1.73270603678850        0.58395848849005       -0.00221851105533
C            0.33392616961315        0.70028935508785        0.03079638088088
C           -0.03494734860011        2.07858713302541        0.08714979767986
N           -0.30340295241112        3.19020891037950        0.15490310807411
C           -0.70817301431353       -0.22297130409656        0.01277123349951
H           -4.71828710369751       -0.04021724300809       -0.05139312810058
H           -4.77916912878435       -1.77538478759842       -0.03989503565416
H           -2.42740651633844       -3.10194103321229        0.00969643273792
H           -0.24541715765884       -3.69220974731874        0.06846562310023
H            1.95921315307748       -3.84379812674940        0.06858234352687
H            3.64642179816728       -2.33343263529919       -0.00737599237162
H            4.51227392639579        2.07874308382817       -0.09456418618682
