26
 energy: -52.782604953118 gnorm: 0.000999067917 xtb: 6.6.1 (8d0f1dd)
N            2.85530512578844       -3.93198168442690        0.01477300894836
C            2.19713953555920       -2.99497346739615        0.01333750789112
C            1.31268704087589       -1.87941285281522        0.00948387063069
C           -0.04739701322668       -2.26459415395121        0.01288104879915
N           -1.18811327472626       -1.64078671996375        0.00934714765313
C           -1.57535214392012       -0.38753926671506        0.00161775937912
C           -2.95373642807668       -0.11350405765126       -0.00264163922992
C           -3.99224652111234       -1.04949592763110        0.00038968882007
N           -4.89476094281182       -1.75996201012840       -0.00135657338001
C           -3.16977565022752        1.29907757667329       -0.00999223407261
N           -4.37025385256030        1.88577397081943       -0.01553552073508
C           -1.91924906921235        1.92670113499613       -0.01003467552346
C           -0.89936418856104        0.96867347232071       -0.00344892847299
N            0.34121935413393        1.37505318087238       -0.00361277510085
C            1.49438077910388        0.76740182809582        0.00062290159620
C            2.70102791807900        1.51888838994187       -0.00161217831592
C            2.81083360684786        2.91050694321453       -0.00608676553326
N            2.91252922915728        4.05430307409005       -0.01604876310856
C            3.74920086721252        0.58472426264202        0.00334011015502
N            3.31322909715189       -0.66578568176593        0.00776579690701
C            1.96616290131634       -0.64900685153019        0.00623365497603
H           -0.18745130375855       -3.34540910627582        0.01987174825898
H           -4.44883661269950        2.88791256286224       -0.02044626463276
H           -5.20699506222849        1.32626318742585       -0.01490757976782
H           -1.74160787275504        2.98537175440051       -0.01439491724025
H            4.80323301745159        0.79631033119566        0.00425503509908
