29
 energy: -61.531612018170 gnorm: 0.000895708974 xtb: 6.6.1 (8d0f1dd)
N            4.44372395426230        2.55980852715941       -0.42642176599965
C            3.87976206964384        1.56587130409825       -0.32290616694960
C            3.22051835787446        0.33874673082426       -0.21605771851032
C            3.79712489715638       -0.94379957465006       -0.35277665681284
N            2.91261889468239       -1.90824683573859       -0.20644535524835
C            1.69529927255060       -1.34908110902053       -0.00779878225191
C            0.61688528439139       -2.21876112095998        0.05221868520909
C            1.05119764016138       -3.56992268162835       -0.10333221975617
N            1.34767681157562       -4.67090547316132       -0.22038362430921
C           -0.79291668444826       -2.07927772317584        0.23018873818785
N           -1.43387960539500       -3.23142860523094        0.53620383241142
C           -1.62053970457562       -0.93401216056706        0.05543399885693
C           -3.00509648992397       -1.24260920979431        0.20321963446739
N           -4.09799429332954       -1.52864268816821        0.40108784624794
C           -1.40391958095015        0.43574990766935       -0.14743908825563
C           -2.46040933438439        1.33598918538425       -0.40863291374288
C           -3.68883566405997        1.05456989451425       -1.02491937662169
N           -4.67568903342638        0.89348985772820       -1.58770272593323
C           -2.06943641599640        2.65022669994816       -0.06696488662322
C           -0.76555757564361        2.62952701537430        0.38835082256096
C           -0.01962359053234        3.72747729809727        0.83812069126277
N            0.56790592404740        4.63262167791621        1.22569953135332
C           -0.24014158315842        1.29857605539646        0.23012438837237
N            1.02551169737831        1.10969058830744        0.27139420748268
C            1.84738313328297        0.12389878203166        0.04377281596908
H            4.83374140956239       -1.16661474053391       -0.52769134557864
H           -0.91678590395386       -4.09186939402856        0.61764485764195
H           -2.43869495001284       -3.26753656227350        0.59199411411435
H           -2.69374501016967        3.51982881129052       -0.16167839883883
