26
 energy: -53.575362894378 gnorm: 0.000849671034 xtb: 6.6.1 (8d0f1dd)
N           -5.16131013299275       -1.95570850174450       -0.76477084702790
C           -4.42751933256039       -1.10643127094699       -0.52508353191992
C           -3.53532043788947       -0.06601168373108       -0.24143909515494
C           -3.83015572733723        1.30105489386749       -0.23924691414293
C           -2.68724361571777        2.02295245780667        0.09339013957046
C           -1.61480325331740        1.13945424269517        0.29240543164685
N           -0.38817558094414        1.57848769868953        0.35826391569179
C            0.78852520508867        1.05645178839468        0.22480528901002
C            1.92466867159895        1.92913578712646        0.15727844830795
C            1.87274106892663        3.30558575608465        0.41209780188552
N            1.83443449528946        4.43265922365836        0.62166765230490
C            3.03714002006556        1.20918612715229       -0.25523103781387
C            2.67313193369018       -0.14011890445261       -0.41207871657429
C            3.54551038996334       -1.10879876978979       -0.92991292903837
N            4.28836806755152       -1.84157837730510       -1.40723364931811
C            1.31631203880224       -0.31629175469213       -0.04254110668929
C            0.78367743326047       -1.55501720557468        0.31461968007782
C            1.69258363647765       -2.64154281604443        0.42779942963018
N            2.37130510955680       -3.54906038177533        0.59800326911541
C           -0.53031533618520       -1.93769494900013        0.68455948682991
N           -1.67439941830352       -1.40935022672983        0.39809568333733
C           -2.17300466212486       -0.24619121757508        0.15048908334714
H           -4.79660052054448        1.71737445736972       -0.45825856924268
H           -2.60791577338168        3.09065404226311        0.17096563842412
H            4.01647499353602        1.61028855226327       -0.44247114160912
H           -0.61518772141742       -2.92048543409082        1.14109096338409
