23
 energy: -49.608827190070 gnorm: 0.000886954081 xtb: 6.6.1 (8d0f1dd)
N           -4.43993669422804       -2.42653555694500       -1.14849930875487
C           -3.77666040466225       -1.55426937288665       -0.80892411374108
C           -2.97033530830617       -0.48303103033003       -0.41367686024543
C           -3.30966258718427        0.87222066080910       -0.38224677061397
N           -2.31398987913187        1.64827887390365        0.05273145122090
C           -1.26783658427152        0.87521604249758        0.33299053469398
C            0.00039820496380        1.45229039755247        0.46000832771539
C            0.00078092992418        2.87802801184534        0.46577951492758
N            0.00110554309049        4.02035824787854        0.51540926453801
C            1.26829334017209        0.87450166849313        0.33295462507882
N            2.31489688861374        1.64695991789370        0.05258043012676
C            3.31009261148431        0.87029122605224       -0.38235501303056
C            2.96995129922748       -0.48479329004764       -0.41368652347044
C            3.77539100548018       -1.55661445302114       -0.80948760464202
N            4.43900406443635       -2.42890011722681       -1.14805009479478
C            1.66765189851975       -0.57037088538083        0.16162480430709
N            1.15897195109833       -1.64780893306723        0.65251887263514
C           -0.00062188447095       -1.97945755458124        1.14423725519226
N           -1.15993119256351       -1.64718532087672        0.65222043405204
C           -1.66799940108229       -0.56942414629157        0.16147292750312
H           -4.25100794548338        1.30760064393979       -0.66455562938493
H            4.25154972430470        1.30511833684566       -0.66511058680654
H           -0.00092529573182       -2.78106318325322        1.87501357629378
