23
 energy: -40.037645397962 gnorm: 0.000825145297 xtb: 6.6.1 (8d0f1dd)
N           -3.39472388690735        2.63258543414162        0.45532407347991
C           -2.94946417814850        1.58922865157148        0.26705173388318
C           -2.39284833540079        0.33016016157034        0.04026944118532
C           -3.07117363853677       -0.78908642537479       -0.48658117219082
C           -2.19601378323416       -1.84964084831039       -0.57215669154032
C           -0.93655958581745       -1.45802016568195       -0.05780659673204
N           -0.04703238087458       -2.34270407153241        0.30045041815179
C            1.19757119759646       -2.28896825849968        0.67580421667985
N            2.15561709670254       -1.49148342562110        0.27535460127360
C            2.22538088697507       -0.23838749553124       -0.04446385892724
C            3.42724519451707        0.33151293393749       -0.54119902107417
C            3.35241216222789        1.70135048374083       -0.41354106730989
C            2.09155106609786        2.05741263113517        0.09631550303222
C            1.32069480222985        0.90993673778140        0.28047620054384
C           -0.05821074781260        0.95452057942055        0.44480235564083
C           -1.03174775540996       -0.00925850604844        0.25207215362609
H           -4.10944656131826       -0.79555948683001       -0.76529501588530
H           -2.42303432195148       -2.84207071373288       -0.91058462916487
H            1.54245215069771       -3.16052671583963        1.22805574749101
H            4.26716582255675       -0.24406255819447       -0.87898308941213
H            4.13188711926440        2.39800682243522       -0.66438928069385
H            1.75396595521401        3.06194451332381        0.27612218050623
H           -0.45307153646764        1.95987140763894        0.56899090923693
