28
 energy: -52.239166501689 gnorm: 0.000843329225 xtb: 6.6.1 (8d0f1dd)
N           -1.78241635637104        4.35813341116302        0.47378546876452
C           -1.14594938409065        3.42159537876282        0.29555824616002
C           -0.29477381508391        2.29374512495863        0.10099248211942
C            1.02875766250693        2.69657832522471       -0.01340649050085
C            2.23206459478268        2.03696114813989       -0.22946502119450
C            2.63443616132790        0.71806805393758       -0.23347553004015
N            3.96260961248377        0.51889229624558       -0.41545264697447
C            4.20218668053585       -0.77240282650805       -0.26219024101229
C            3.04192139095456       -1.49627043047471        0.03323258339898
C            1.98310119178871       -0.58010597173793        0.03361174457664
C            0.64287036555486       -0.98207880360382        0.18533040768701
C            0.55080454907665       -2.35353858689755        0.56671986067212
N            0.54294038763644       -3.42395665734147        0.97720699493990
C           -0.58700726768883       -0.34537268246263        0.02392043052889
C           -1.78709442714240       -1.09947135570479       -0.07317695122728
C           -1.98508321587883       -2.47601299140674       -0.21116539937510
N           -2.31002581404481       -3.56495239268236       -0.38893334082178
C           -2.89170669889462       -0.21731075950310       -0.15774302051622
N           -4.17518373334990       -0.58299454724135       -0.28563268706615
C           -2.39014834735368        1.09141556402271       -0.07769560388120
C           -0.99873662183527        1.07113985664214        0.00178861600259
H            1.14039413036793        3.77552678143445        0.04310165999841
H            3.07755497923552        2.69631569827822       -0.39386452188254
H            5.19989429184384       -1.15964129411987       -0.36398467224741
H            2.97859613717362       -2.55453938613074        0.19316845914435
H           -4.41311290119884       -1.55753126715460       -0.36152941163725
H           -4.89728570089904        0.10931080011941       -0.37326972140875
H           -2.99827323253609        1.97654213394059       -0.09596350050693
