27
 energy: -52.519544295636 gnorm: 0.000536707361 xtb: 6.6.1 (8d0f1dd)
N            5.28643980761995       -1.57174637325396       -0.00293784859145
C            4.40737670324056       -0.83207711066958       -0.00136745092207
C            3.32548425356985        0.04999264779134       -0.00055792906400
C            3.37545519076671        1.44686250981685        0.00096715866193
N            2.16161458538262        1.98570084279624        0.00171347671717
C            1.25683155003307        0.99291881206460        0.00075495002778
C           -0.08485518430244        1.38333678433647        0.00159369313162
C           -0.25184310420208        2.80220392221896        0.00331584100315
N           -0.39472813080587        3.93789862317127        0.00385072317080
C           -1.30279685902479        0.70049328886527        0.00159703900770
N           -2.39728663739637        1.46904080544733        0.00335741397026
C           -3.47399168132109        0.66774306876722        0.00319846286697
N           -4.70920869377993        1.17328827476777        0.00480775807488
C           -3.09329318071064       -0.69443189821486        0.00114328395879
C           -1.70355464616672       -0.72840508875799        0.00010060158793
C           -0.98997952667766       -1.94605910796969       -0.00218441652610
C           -1.84327693241868       -3.08888418886545       -0.00398978789016
N           -2.50304551465696       -4.02584822746729       -0.00478976228502
C            0.34851885858041       -2.31738727415746       -0.00331039723698
C            1.56174172308711       -1.63803381355331       -0.00259493738772
C            1.94473282985100       -0.31058369688271       -0.00085850162762
H            4.25252581768905        2.06767826856726        0.00163978629155
H           -5.51644779759295        0.57663711088293        0.00483927140335
H           -4.81617789112948        2.17298389373116        0.00622163872414
H           -3.76088415503868       -1.53350382088901        0.00056110602675
H            0.47472461176792       -3.39641411616811       -0.00511897699064
H            2.41647429063602       -2.30997221937527       -0.00368388190305
