28
 energy: -51.436803682239 gnorm: 0.000626542190 xtb: 6.6.1 (8d0f1dd)
N           -4.48191308096528        0.46285341540799       -1.62722453753743
C           -3.54063009994552        0.74562083602716       -1.02960393169060
C           -2.41267459482352        1.19281953173696       -0.34042260800092
C           -2.28784064520256        2.49682490693256        0.17532597741246
C           -1.03454816495266        2.66063386013044        0.72831992228888
C           -0.27462660361692        1.48689361393098        0.53317001524039
N            1.01803665302365        1.53057886874195        0.66863849914830
C            1.99639511308524        0.72281420944850        0.35054571102582
C            3.28832300496773        1.20034551001468        0.15094925123625
C            4.09032607566988        0.16062850702961       -0.36348673097777
N            5.38265701616800        0.27951094937574       -0.71832179084830
C            3.32209951274548       -1.01443287047921       -0.44710717078665
C            2.03848092997449       -0.75015906157175        0.01513390311201
N            1.15668298981836       -1.68933208357957        0.23234522772948
C           -0.11166852925105       -1.77998545640724        0.48423642004413
N           -0.49236829682884       -2.91272266142963        1.13082576290581
C           -1.18130950716211       -0.90998688708985        0.02827063283220
C           -2.34667239199679       -1.64030913675879       -0.29914881688050
N           -3.23766504503782       -2.33082249254157       -0.52381159360967
C           -1.22684165672508        0.46917524158098       -0.03688507059720
H           -3.06111887119663        3.24211175832049        0.12082402566622
H           -0.63628565448141        3.56010531685773        1.15599245699961
H            3.59900221351461        2.21471997217016        0.31151376010684
H            5.89201748286037       -0.51640663321804       -1.05714885267186
H            5.87187011211832        1.14270690781832       -0.56785079891441
H            3.67622718289608       -1.97478942299168       -0.77010359052818
H           -1.45856338330784       -3.19439580548235        1.13117699994863
H            0.21226030669308       -3.61423791686651        1.28678694891639
