27
 energy: -51.728349686711 gnorm: 0.000913677278 xtb: 6.6.1 (8d0f1dd)
N            5.09663164565323        0.65233483293884       -1.13592577526154
C            4.14480006756410        0.08665189483476       -0.82401773547895
C            2.97647453180477       -0.56527445106733       -0.43825912883374
C            2.80133815126095       -1.92623489381786       -0.17352567431761
N            1.56443414575338       -2.21245336376365        0.21233749184422
C            0.84510202102299       -1.07261490616062        0.20256193167723
C           -0.51952368314142       -1.19714038596040        0.44685013116101
C           -0.91045182021321       -2.52157502491576        0.79264919218406
N           -1.28841327280735       -3.55617399679685        1.11043591068211
C           -1.60100333790277       -0.32249831096271        0.23613680472819
C           -2.91966016969925       -0.71959311987693        0.13441127256510
C           -3.63596457343786        0.39600392557274       -0.38594212938695
N           -4.93428407796329        0.42459124680604       -0.69663732502365
N           -2.85705993434172        1.47150993152501       -0.55046921702877
C           -1.62867857267372        1.13612401272853       -0.13410386133512
N           -0.76429916160756        2.07588865816578        0.05905386230782
C            0.50579407244991        2.24350138456287        0.30810502142970
N            0.81103226076316        3.43414306905527        0.87698200705225
C            1.60515348624925        1.42709705483570       -0.07620493229592
C            1.72284742399826        0.06544633938824       -0.16760264263596
H            3.54105382671365       -2.70207927687376       -0.25597531517566
H           -3.32969449803450       -1.68698926171444        0.34771713819216
H           -5.52116896873079       -0.37334472133166       -0.53406152864273
H           -5.32081179234875        1.26911891718221       -1.08010195145873
H            1.76489820818409        3.73131149296467        0.97778693800983
H            0.06523309412117        4.08728256972910        1.04548698041801
H            2.52316068906646        1.97596076315016       -0.26433596177463
