24
 energy: -48.553681486501 gnorm: 0.000889072821 xtb: 6.6.1 (8d0f1dd)
N           -4.43912101575537       -1.52615542451213        0.81928845544468
C           -3.59678167255561       -0.80602251791330        0.51807452219010
C           -2.57975207707896        0.08026509953223        0.15757974563361
C           -2.76302257694788        1.39592092852283       -0.35238402580917
N           -1.63039102447446        1.98215375872844       -0.63581714624970
C           -0.61952238770170        1.12656225761273       -0.29187259884936
C            0.64408692509752        1.66302220486966       -0.25924289583986
C            0.75889135125340        3.01787898701820       -0.65648964790600
N            0.92855183959601        4.11561019370632       -0.94127597655882
C            1.88666622004135        1.06927278497185        0.21486747411641
N            2.72463441460677        1.87812765598714        0.88939605266020
N            2.30938160422666       -0.11502531759714       -0.06696826154640
C            1.86269082756798       -1.31249510406353       -0.28668170950802
N            2.64410062452999       -2.28647646136117       -0.75984917176615
C            1.95962217021083       -3.40935509041670       -0.52553328094184
N            0.77003945044678       -3.28041239703161        0.04955041833534
C            0.57865609428982       -1.95233361658058        0.16092151984914
C           -0.67112983469566       -1.43282971847225        0.40655217053647
C           -1.19516061384860       -0.16195711847273        0.17003624666810
H           -3.70277407039161        1.89411557085015       -0.50794265282269
H            3.64098727525656        1.53040975190679        1.12056841716637
H            2.53803767545034        2.86409105353165        0.96737782462711
H            2.35972197991519       -4.37222549608131       -0.78532210238097
H           -1.41284421113889       -2.18728905253813        0.65291071765315
