26
 energy: -47.212483677418 gnorm: 0.000585129446 xtb: 6.6.1 (8d0f1dd)
N            3.99454733502671       -1.56608275111684       -1.37662568556640
C            3.21029111594066       -0.85324595600614       -0.92806728951761
C            2.30536452483578        0.05882543232943       -0.39066736007737
C            2.61655164889624        1.38501271700581       -0.02920911203911
N            3.81170995788400        1.97645366845116       -0.18852111080700
C            1.45880446170683        1.98657968457816        0.51662366448045
C            0.39988793493000        1.09060516287046        0.48515305630561
C           -0.92462407977255        1.48638850857374        0.67552191933437
C           -2.11493950531723        0.90237501771804        0.29841377837398
N           -3.20866367272747        1.68054499129447        0.20096233659944
C           -4.12073623545998        0.99266697205164       -0.49390144271532
C           -3.69911193882035       -0.27753051328432       -0.86273228624675
C           -2.42672765745528       -0.44305623045698       -0.29551087317787
N           -1.84144184518942       -1.59860209771234       -0.13930887220131
C           -0.67027565844179       -1.94790668377492        0.34142921728288
N           -0.62430599060689       -3.12566738053766        1.01318222648430
N            0.51066470189539       -1.41419739247954        0.06448025518253
C            0.96258615187701       -0.20646719979781       -0.00902774084401
H            4.57320068544674        1.46329684775997       -0.59747819500033
H            3.96835183109557        2.91113093651834        0.14263233333868
H            1.39972816156440        3.00882277093221        0.84276075144088
H           -1.04550978446874        2.51889209575484        0.98640522092722
H           -5.07279528802845        1.44582036420938       -0.71092394857866
H           -4.25712926027699       -1.02263627451420       -1.39253554207820
H           -1.44835204608959       -3.70187595297553        1.00435917002101
H            0.27273405535554       -3.56702259249125        1.12316294027953
