26
 energy: -52.793023451427 gnorm: 0.000797651512 xtb: 6.6.1 (8d0f1dd)
N            5.35616638179244        0.43555538334228        0.40898094214697
C            4.32409992792959       -0.05850059850938        0.31225401939647
C            3.11406748938556       -0.75764460210193        0.22403651230645
C            2.99565772219507       -2.11603377399613        0.51327383184587
C            1.67842738722419       -2.52311011857063        0.29826244284263
C            0.92639272508903       -1.44676442006502       -0.16694209451293
N           -0.32787948749671       -1.62742300873855       -0.51491351524713
C           -1.44409126104854       -1.04413572273055       -0.58273685233479
N           -2.62831271176275       -1.60935671493712       -0.82186513898804
C           -3.55666839888991       -0.86052178838294       -0.22481009845444
N           -4.83592231792149       -1.22193694869433       -0.18544219126968
C           -3.02849865448161        0.36187397470877        0.32892731791826
C           -3.76438067763025        1.29729018034627        1.04909357098826
N           -4.42028875213070        2.03696895379091        1.63630349755635
C           -1.69128779479837        0.40322933724249       -0.06038373156925
N           -0.91516297983448        1.37705060754713       -0.32868932963829
C            0.29121659084460        1.70476967014837       -0.63342390113809
C            1.53629800723944        1.08138310534015       -0.33397429545868
C            2.58981649154068        2.03516916402850       -0.28347721149743
N            3.35744583005712        2.88521504205044       -0.26863923634524
C            1.83331384738734       -0.25618426755994       -0.16212301873846
H            3.80359799691502       -2.74466757870240        0.84034862313339
H            1.29133414327226       -3.51444593961140        0.43215462185659
H           -5.51116642473135       -0.66061657018747        0.30455131577956
H           -5.11579924583774       -2.07540304592848       -0.63681217281733
H            0.36388467249115        2.67786237798163       -1.11458039635950
