29
 energy: -56.758312854685 gnorm: 0.000629339782 xtb: 6.6.1 (8d0f1dd)
N            5.80610711965925       -0.61973261135567        0.31221135811435
C            4.78989094580219       -0.09352806900385        0.21263546273993
C            3.54749081597265        0.53103863387648        0.09086023901282
C            3.30192202490163        1.90943229274242       -0.02203638139100
N            2.01088773755600        2.16781376487653       -0.12732635024097
C            1.33415730954058        0.99818975307459       -0.08104158609794
C           -0.05897905130376        1.12242543747082       -0.11323960442667
C           -0.41685257026483        2.49642925212882       -0.28637530947394
N           -0.69419341360879        3.58997379290374       -0.48233808384483
C           -1.12869242654031        0.22720495347665       -0.00967305770466
C           -2.45855648968407        0.68733259369618        0.08434115257366
C           -2.99559246294057        1.97345312123444        0.20699933485607
N           -3.62708226757941        2.92284642682727        0.35455110530968
C           -3.34833418197353       -0.42834678636784        0.11471069808450
N           -4.68019978189575       -0.34649467713380        0.21419796342933
C           -2.57013198591800       -1.58419455724733        0.02483352403060
C           -1.21075346460376       -1.25041404429118       -0.02974011444233
C           -0.25699962973999       -2.28076993052086       -0.09928053990519
C           -0.83502185055679       -3.58197021105198       -0.20802572431767
N           -1.24288529007907       -4.64814453319550       -0.30886145874233
C            1.13566652063889       -2.39007177523928       -0.04384681917396
C            2.18442215794755       -1.49711214929986        0.05551740238207
C            2.28207764908887       -0.11302066816598        0.04298541567166
H            4.02746178045277        2.70172751667944       -0.02786220271437
H           -5.12295067429652        0.55501314498859        0.28231899359161
H           -5.24433404484454       -1.17736162758406        0.23343425337470
H           -2.96352766255959       -2.58322469669489        0.01655313308739
H            1.46330790751609       -3.42530391019501       -0.07029767191874
H            3.15515507531251       -1.97924886842958        0.13075494143667
