26
 energy: -47.989059093804 gnorm: 0.000674267096 xtb: 6.6.1 (8d0f1dd)
N            4.28721659342830        0.35666835609215       -1.34731276780884
C            3.31451630444759        0.67222607585943       -0.82213718080025
C            2.14875079742236        1.15966221837113       -0.22572942146054
C            2.01409513108067        2.48478601953462        0.23014235609220
C            0.72268137918541        2.68619664373542        0.67012415095921
C           -0.04136793082403        1.51440746266651        0.46247647511081
N           -1.33929226149978        1.58858916274862        0.53256186736957
C           -2.31430003067804        0.79609000679734        0.18740001836425
C           -3.60585862543449        1.28989645032585       -0.04537793716856
C           -4.37568416820476        0.29073073423496       -0.64337349840434
C           -3.62739557816811       -0.87182735943505       -0.77347414482664
C           -2.34973312693092       -0.65497882985604       -0.22691659862780
N           -1.50496371737783       -1.61837504812008       -0.01941638711128
C           -0.27408642829897       -1.76745342413823        0.37574239931561
N           -0.00803880009048       -2.94491209762678        0.99606543812548
C            0.85218755106963       -0.91325173229414        0.07065308788185
C            2.04645033158298       -1.65363836518940       -0.09653484729850
N            2.95969714216542       -2.34566761973134       -0.18003273092917
C            0.92496818521146        0.46819344293810       -0.00625648770133
H            2.80395619801307        3.21345910995903        0.21125547087207
H            0.30729593516660        3.60321566036959        1.04090772939800
H           -3.91674435097530        2.29476640198597        0.16656692024963
H           -5.40036389366727        0.40279997630235       -0.94976715893036
H           -3.96667296670446       -1.81115119278185       -1.16681455175335
H            0.94159802114769       -3.25899243887416        1.10657578762495
H           -0.74983410576571       -3.62306047877386        1.04638963435698
