29
 energy: -56.750724654284 gnorm: 0.000905556093 xtb: 6.6.1 (8d0f1dd)
N            5.50966172627303       -0.53892701903815        0.72892848962740
C            4.53666019225880       -0.00644352716470        0.43072630985001
C            3.41643330310573        0.76990404768452        0.10804345695810
C            3.53033189943437        2.16742244698347       -0.11824617563290
C            2.28140528648885        2.68920978185207       -0.32204832711723
C            1.30666525590390        1.66042398390158       -0.18096048624841
N            0.05992243318655        1.99820167796830       -0.17802348999306
C           -1.11490518073424        1.43518231960233       -0.05517009899896
C           -2.22919756818183        2.27313695848618        0.08164759150529
C           -3.39786964245160        1.50748877289658        0.11299491635901
N           -4.65868894422164        1.94639530272938        0.22349716100951
C           -3.02225188603318        0.13540347234552       -0.00627315824040
C           -4.01748193146411       -0.84561179424184       -0.05167196368641
N           -4.95683235128552       -1.50828220103176       -0.08353473214259
C           -1.61773851025123        0.03480406993652       -0.07810316126142
C           -0.94548345629912       -1.19040852877965       -0.08961125707274
C           -1.77519548621075       -2.35208521417143       -0.06203559889678
N           -2.35493439564184       -3.33974152281894       -0.04401869733858
C            0.39878845523104       -1.57844120601665       -0.09657493127947
C            1.64058808839420       -0.94278619719297       -0.02883585426561
C            2.68073517515403       -1.91977751560594       -0.09546582761021
N            3.43666265703254       -2.77499574730186       -0.18702391239792
C            2.06278916655747        0.38981927555884        0.02809422794620
H            4.46284807002586        2.70150443066827       -0.11468672680296
H            2.02949618170624        3.71433646870400       -0.51208051398173
H           -2.16953536794447        3.34224805241932        0.14622247122352
H           -5.42151687259951        1.29010018568404        0.20541582462624
H           -4.85417438822438        2.92836857672285        0.30033222267046
H            0.50269702859183       -2.66073881517967       -0.13978040780791
