29
 energy: -60.757523826339 gnorm: 0.000928091663 xtb: 6.6.1 (8d0f1dd)
N           -4.92770306987027       -1.40788350527871       -0.24076809279034
C           -4.01178696561120       -0.72339327606115       -0.13784919753099
C           -2.99233208543516        0.22288724002166        0.00722228323340
C           -3.25331797088414        1.58188795058977        0.30515078220048
N           -2.15226118965828        2.28844386366675        0.40683449054021
C           -1.09388120865497        1.46575095864668        0.17772127649605
C            0.10968881056724        2.14424844429929        0.07957305168664
C           -0.10548692184155        3.54354207609342        0.28208072671186
N           -0.18549500695157        4.67648745249111        0.44027587541417
C            1.47284448959102        1.81952604850510       -0.21039408397835
N            2.25512114841145        2.86957966054672       -0.54692543707929
C            2.11619988717564        0.57201016267840       -0.11353523500725
C            3.53511263462519        0.62264187039461       -0.22376541152984
N            4.67339631806051        0.71068298234524       -0.33390031507998
C            1.69598572824017       -0.74946105801724        0.10026387090051
N            2.65689685185845       -1.65599460440392        0.27680205869247
C            2.03253595474364       -2.84971057717215        0.31425505062586
N            2.67630931368142       -3.99306776272166        0.50428641566538
N            0.70033857235937       -2.78672824951815        0.13564605760117
C            0.41084105317391       -1.48945952480630        0.02387796869251
C           -0.93224590200319       -1.13682480730405       -0.16013445609458
C           -1.73314549017672       -2.28653398165286       -0.41544543639015
N           -2.33486705706960       -3.22655266975660       -0.67193929496056
C           -1.58910629337467        0.08531444337715       -0.03896959665672
H           -4.21978660565812        2.03121823171869        0.44175779303315
H            3.24591736440083        2.73920373419704       -0.67397108135415
H            1.88350630977379        3.80546492118717       -0.54651621210918
H            2.15716191523348       -4.85357420335243        0.50057841842859
H            3.67403889729332       -3.98285409921242        0.62290312523852
