22
 energy: -40.294608627958 gnorm: 0.000480487724 xtb: 6.6.1 (8d0f1dd)
N           -3.21653001845165        2.75353715188041       -0.01345791777560
C           -2.78908060903404        1.68822397541524       -0.01182288048113
C           -2.31961053176720        0.36921174435012       -0.00903369238851
C           -3.13909645753442       -0.77743228764517       -0.00913672384917
C           -2.34312942071478       -1.90214197162037       -0.00618987746762
C           -0.97509945761598       -1.53422400583248       -0.00403877789084
N           -0.08394678287602       -2.48347007600320       -0.00114315441810
C            1.22913260690544       -2.53119070820151        0.00145515716923
C            2.25869604241762       -1.59433347595769        0.00239646542119
C            2.30407994444538       -0.20466340573267        0.00082500273833
C            3.51054584663420        0.50452058761029        0.00237271614209
C            3.18684687017798        1.86535879163678       -0.00002934505430
N            1.88016400038022        2.07728600528605       -0.00294880676466
C            1.26481186678999        0.87839523427862       -0.00264058601782
N           -0.03442223857442        0.89764653782237       -0.00523978782702
C           -0.95703623435739       -0.02050749666279       -0.00588472091149
H           -4.21422236761353       -0.75645824338480       -0.01126722812815
H           -2.67755644211291       -2.92240767213595       -0.00557248455123
H            1.57206919350655       -3.56517251036200        0.00333162436710
H            3.24483516552335       -2.04969359224984        0.00491742787560
H            4.49721474149602        0.08112238786727        0.00492012552271
H            3.87023932077524        2.69576171814078        0.00029414268915
