24
 energy: -43.753013445632 gnorm: 0.000701269287 xtb: 6.6.1 (8d0f1dd)
N            3.07659839355796        3.13615978474281       -0.81442206644661
C            2.81986822431146        2.05899858098491       -0.50363203672369
C            2.53028747829136        0.74801686124091       -0.12836340903969
C            3.40399381220872       -0.12822981668436        0.55134148761955
C            2.78890825167162       -1.34081204977874        0.78646116307675
C            1.52144960221909       -1.33617052184353        0.16850100175840
N            0.87233515832356       -2.39651130640639       -0.17521147574380
C           -0.29965389400201       -2.63185793840600       -0.70607331949940
N           -1.45513933194520       -2.09611828875129       -0.41937079754878
C           -1.81493137457796       -0.88461823836381       -0.11779834966585
C           -3.09890193199347       -0.54495049668211        0.31012612218695
C           -3.26400629262871        0.84246018509145        0.21543370900523
N           -4.38421053684834        1.52764983530788        0.50229338522170
C           -2.04570282651663        1.42818850443823       -0.21043438227316
C           -1.08824860526512        0.43942280454605       -0.36608238944079
N            0.17997983623627        0.74914425175534       -0.49530773597330
C            1.28156681003805        0.10025147594816       -0.29081692398918
H            4.40646899149210        0.13245103122987        0.84274740899241
H            3.22168175305802       -2.19085914737972        1.27809913767312
H           -0.35079442156340       -3.53740503084769       -1.30619406050898
H           -3.85307219656323       -1.25176747410730        0.59923987128287
H           -4.42709706561710        2.51749413789000        0.33933393259178
H           -5.21737503630798        1.04339637148977        0.78444674733956
H           -1.86596701238090        2.47838138608610       -0.33932408069485
