24
 energy: -44.550006835270 gnorm: 0.000335228602 xtb: 6.6.1 (8d0f1dd)
N           -5.00585379269283        0.91690063709596       -0.00130150995117
C           -3.99885985735489        0.36442376068672       -0.00014962059350
C           -2.76558825982879       -0.29050161879339       -0.00037997239998
C           -2.54714859542823       -1.67645515424568       -0.00061769483180
N           -1.25718899920936       -1.96705378874907       -0.00053144634129
C           -0.55906181347686       -0.81346384940043       -0.00023867198080
C            0.83297942339734       -0.94075467849145       -0.00020194101029
C            1.27150114304445       -2.30117731609853       -0.00051188419427
N            1.62063105689777       -3.39078935201434       -0.00087055065827
C            1.88339532395307       -0.02438136603641        0.00011538664279
N            3.12258396497289       -0.54557374033897       -0.00000799693747
C            3.99345272672028        0.46030416832761        0.00043624641206
C            3.35836918239389        1.69742030574045        0.00090212687630
C            1.97203462014053        1.45225674877925        0.00068479793931
C            1.06253214235950        2.50153597370693        0.00096692742100
C           -0.31960401163177        2.61628038177724        0.00068741434839
C           -1.36991549401929        1.71138764488963        0.00015852143452
C           -1.48300879562319        0.32711102089290       -0.00016791001509
H           -3.28994452875781       -2.45271316643165       -0.00074288204602
H            5.04920891387313        0.26001293898818        0.00040907996100
H            3.82910650239920        2.66154073370461        0.00131579561899
H            1.56421252318166        3.46549227323713        0.00145776341850
H           -0.65673247774232        3.64691821603781        0.00093434465722
H           -2.34447624236838        2.19411763343554        0.00002328542986
