31
 energy: -65.000514461997 gnorm: 0.000722986505 xtb: 6.6.1 (8d0f1dd)
N           -5.35677951050087       -0.23732535762642        1.48509015649390
C           -4.34985591336408       -0.56530941030276        1.04141036188230
C           -3.13640818193969       -1.04584478561083        0.54311286485880
C           -2.82482844496075       -2.39647380282504        0.36036378709765
N           -1.59514788090835       -2.57426679722568       -0.11180824870977
C           -1.00971576283168       -1.37400072725124       -0.23428117379654
C            0.37154636453057       -1.39971692316365       -0.46907523842197
C            0.83801781575693       -2.71012578940540       -0.78079639895653
N            1.21655454693727       -3.73804745507113       -1.11330631760072
C            1.35708181716821       -0.43144176878996       -0.24972165549931
C            2.70754372677861       -0.70589570090809        0.01502532115284
C            3.42586031373001       -1.90274591391054       -0.05167431473018
N            4.14617722727463       -2.79823514155388       -0.05106474601530
C            3.34221745751086        0.48892799876953        0.49097865837873
N            4.60953589664572        0.56945830411234        0.89458680281980
C            2.40135648056078        1.53741984062595        0.44659474606316
C            2.66079348286752        2.86724318898330        0.78506463329331
N            2.90667383388508        3.95311180911240        1.06718160609295
C            1.18640811519338        1.02909756547150       -0.06891795824492
N            0.25270246432835        1.80542271798566       -0.52130875637924
C           -0.99348154623819        1.81352569668213       -0.86690522422137
N           -1.36973135608466        2.73821030200794       -1.76855262631594
C           -2.03687558951380        1.02933887967005       -0.23534092504693
C           -3.22602675753323        1.76557867543634       -0.03597297417729
N           -4.14568007035703        2.44595851964890        0.05942784454471
C           -1.99838099269150       -0.31068382536742        0.09491686229473
H           -3.45831778015683       -3.23893169035105        0.56812072196559
H            5.20361152350567       -0.24305120742613        0.85317513686486
H            4.98090297921258        1.43960037532926        1.23798792118942
H           -2.34485354807078        2.93723045969437       -1.92079755756307
H           -0.68199514336127        3.39352789445268       -2.10244379266203
