29
 energy: -51.169471424476 gnorm: 0.000562202479 xtb: 6.6.1 (8d0f1dd)
N           -2.42744029612438        2.73707095520522        0.87750957817769
C           -1.58861938486963        2.04814820790131        0.49986141561731
C           -0.47919288333344        1.23736992878361        0.14573871835288
C            0.71058963558759        1.95543737792855       -0.01927039301067
N            0.61231421839207        3.32094458612335        0.03602010159911
C            2.02628480664230        1.51564029907803       -0.33130513086822
C            2.74188959985343        0.35942670626723       -0.23246571878467
C            4.15348500598844        0.38720761129784       -0.46391161833518
C            4.69293279661982       -0.82824105441490       -0.13529323064890
C            3.65598152429462       -1.68775045529226        0.27502554514894
C            2.43623217752855       -1.02260865100878        0.20364881770190
C            1.23769960435854       -1.70215051761600        0.38462184097844
C           -0.09171066293579       -1.38165229951753        0.20799048090847
N           -0.95422966073580       -2.43469688366071        0.21413805850660
C           -2.16823249600024       -1.96888146094608       -0.02115298335200
N           -3.25413318137307       -2.75197681291086       -0.11256950908581
C           -2.16546217792259       -0.53630154972099       -0.13182874092684
C           -3.31871021048403        0.17684811403097       -0.44838996347558
N           -4.32331049845148        0.64032575357160       -0.76540842737108
C           -0.83278190567308       -0.13162467230663        0.01888847234398
H            1.44559647138597        3.87716847890983        0.09738162878720
H           -0.25457186053351        3.74829061482112        0.31539326027004
H            2.64563119792239        2.35380129037532       -0.64478927192864
H            4.69035790398898        1.25373915015087       -0.80375864199153
H            5.73349408870028       -1.09403866226697       -0.18360361756940
H            3.77935478943452       -2.71294910411606        0.57167613808788
H            1.36222292117529       -2.75679544041909        0.60856221126089
H           -4.13750722287525       -2.35325682584344       -0.37620638426658
H           -3.13585568145902       -3.74844668150406       -0.08946732012608
