28
 energy: -51.444925992075 gnorm: 0.000829602194 xtb: 6.6.1 (8d0f1dd)
N            4.17028191761381        0.54738643703474       -1.28894938086298
C            3.21127379019431        0.10807210321494       -0.82934802256137
C            2.12938810593151       -0.59335666708098       -0.29783461859521
C            2.24221104800830       -1.94978244279575        0.06727287105719
N            3.35807298644679       -2.69163712611890       -0.01784415338762
C            0.98212298526897       -2.38044342604764        0.53480955532496
C            0.05856966655456       -1.34663532529932        0.44552393155992
C           -1.30510135596412       -1.62096358837648        0.60963900047468
C           -2.44248080439498       -0.94548417202292        0.24515253296414
N           -3.59803633676988       -1.63110368827210        0.10551823078525
C           -4.43955400654498       -0.83827930636551       -0.55423385382488
C           -3.92308518668135        0.43124738598302       -0.81538442208231
C           -2.64605971098821        0.44682822488011       -0.25075484478357
N           -1.95497633927890        1.52521471497053        0.01197803775083
C           -0.76610121166380        1.84525190642821        0.39926335028841
N           -0.66023019169801        3.01073840382986        1.08703862519604
C            0.48295348997059        1.19420867267833        0.03513031811290
C            1.48618091965987        2.14512207254804       -0.26064971139846
N            2.21905045888921        3.00926040676058       -0.45258058925043
C            0.80773394806095       -0.14653268476521       -0.00765000440926
H            4.19060432317305       -2.29514405489733       -0.41913780306249
H            3.35171327080849       -3.65853411527565        0.25159580058658
H            0.75823743448279       -3.38258422051311        0.85038535049817
H           -1.50891641342152       -2.64811553736579        0.89455479390486
H           -5.41786584116360       -1.20132809144160       -0.81769074807069
H           -4.41964557824721        1.24844723196404       -1.29820274344677
H            0.23284668273772        3.46603590443741        1.17554972776574
H           -1.49294171088463        3.56881265441298        1.17944499726721
