26
 energy: -48.008882244529 gnorm: 0.000747337231 xtb: 6.6.1 (8d0f1dd)
N           -1.74619995139482        4.01902378274528        0.00079897988641
C           -1.09565890440401        3.07623310702239        0.00117729175086
C           -0.21469425731151        1.95380044906579        0.00080874931713
C            1.12947444942536        2.32563076565104        0.00115476875401
C            2.32910397225893        1.63713494067874        0.00137617795719
C            2.70826416109056        0.30107981424506        0.00084840231077
N            4.03219868900611        0.07382839473854        0.00135768894702
C            4.22402526900876       -1.24790160662721        0.00043378485209
C            3.02987318615038       -1.95243288686750       -0.00076771972629
C            1.99295378510871       -0.99749806536277       -0.00046968002281
C            0.66511453824445       -1.37090882975714       -0.00111022912069
C           -0.53844089810468       -0.67606429444349       -0.00045072880899
C           -1.77460198881025       -1.36218079893994       -0.00075734014170
C           -1.99161854526448       -2.73610613129467       -0.00198482046259
N           -2.20131004233275       -3.86735758312163       -0.00111089241051
C           -2.79325423238789       -0.36669862961957        0.00034323050399
N           -4.11440580511913       -0.56558389165574        0.00019721897354
N           -2.25991734313547        0.85787578195131        0.00094752661099
C           -0.92173074527457        0.74116882476371        0.00048775159257
H            1.25370166096580        3.40455790780184        0.00149266962153
H            3.20755477984283        2.27419503631288        0.00208932051480
H            5.22258231743236       -1.64684337372257        0.00066821343550
H            2.90634777643974       -3.01808278928064       -0.00165901825220
H            0.52387807260555       -2.45005432235096       -0.00208447368782
H           -4.49606386497509       -1.49458257224587        0.00150479922808
H           -4.72126010436481        0.23517239611308        0.00227005557709
