24
 energy: -49.334927540740 gnorm: 0.000651771789 xtb: 6.6.1 (8d0f1dd)
N            3.58752582562938        2.26935793845866        0.60016473107551
C            2.58866659545849        1.77115973698056        0.34470891093221
C            1.27464049326304        1.26414261209285        0.10120636362132
C            0.36551166107221        2.32170294400036        0.02240862307658
C           -1.00587608330048        2.42623538068767       -0.13735785258576
C           -2.05734476854699        1.52479591273320       -0.12373419061871
N           -3.30813629979812        2.02553938687962       -0.22222871395612
C           -4.11906519304854        0.98594700578213       -0.11557558509694
N           -3.51834618277152       -0.19829594580034        0.04127298062745
C           -2.20783517546883        0.06396546820930        0.03721924615300
C           -1.31142800180140       -1.01120636897883        0.11749998086656
C           -1.96318278730926       -2.27695287021023        0.23357970305376
N           -2.49937990192679       -3.28211074946542        0.33805851364153
C            0.07252759520126       -1.10162914552125        0.04163872006380
N            0.56489852254975       -2.36021093718755        0.01343434713409
C            1.87164851905445       -2.29586862156634       -0.09932971110925
C            2.33493805211997       -0.95903462702739       -0.10161032064831
C            3.68685424479785       -0.63184418628124       -0.26472993028063
N            4.80894121181288       -0.47139895562639       -0.44387100013278
C            1.19191420837049       -0.13346358926603       -0.01058819481216
H            0.85899333668368        3.28742348858732        0.08487852088873
H           -1.36943410039138        3.44243725790108       -0.25067442241138
H           -5.18781979855091        1.07970990917413       -0.15187035572295
H            2.47250967830023       -3.18306332515553       -0.17597211235943
