28
 energy: -56.238732876352 gnorm: 0.000643614806 xtb: 6.6.1 (8d0f1dd)
N            2.85678326244408       -4.24222782155438        0.00144327094754
C            2.72442811890548       -3.10185813077496        0.00111514572064
C            2.61658078184700       -1.70942137769349        0.00056655207919
C            3.69267823449845       -0.79350916250956        0.00060609510859
N            3.29033783915240        0.45809737516649        0.00014623379476
C            1.92946363747355        0.47072511547383       -0.00028855369836
C            1.36221666083169        1.73133029515800       -0.00193392380852
C            2.37193058863728        2.74033943864179       -0.00265698501823
N            3.12738024730056        3.60347541916475       -0.00300744362152
C            0.02282039031487        2.23567063838560       -0.00323196588299
N           -0.08233888894635        3.58975019903030       -0.00588957743098
C           -1.19493083373138        1.55476751498737       -0.00193518571172
C           -1.62184244864953        0.23498463282930        0.00003421448880
C           -2.99271858362711       -0.07062955936784        0.00123163041208
C           -4.06298195322050        0.81779679189348        0.00083620347571
N           -4.95376983049007        1.54619413687886        0.00053362908818
C           -3.10167434162619       -1.49933186599509        0.00292370641814
N           -4.23190505859716       -2.20453813880667        0.00442846490512
N           -1.90461991973718       -2.07886722416039        0.00277257461982
C           -0.96477191326373       -1.12067535604710        0.00114718382374
N            0.26468040846162       -1.52455438305747        0.00078553112618
C            1.43314989622844       -0.94142473296414        0.00025672067018
H            4.74055027730741       -1.03476552337814        0.00106382435581
H            0.73809454321446        4.17170882756958       -0.00642239316598
H           -0.98659322659578        4.02743175341964       -0.00636469795001
H           -2.03883984461005        2.24354787152328       -0.00258233311126
H           -5.12801894886475       -1.74933020548008        0.00452591987016
H           -4.16975399935751       -3.20816397243301        0.00549204019497
