28
 energy: -56.256379458340 gnorm: 0.000768610537 xtb: 6.6.1 (8d0f1dd)
N            2.31426208678101       -4.10479709180730       -0.16325013209718
C            1.72940826158731       -3.12804719820247       -0.03043557113052
C            0.94789809290721       -1.95895623484418        0.15614994287836
C           -0.36932455965110       -2.21911083286793        0.63141528778003
N           -1.46090517803486       -1.56636222125173        0.49294008902348
C           -1.87116731174360       -0.36388311851492        0.18843873923845
C           -3.18243409641354       -0.05660126784908       -0.19102813989256
C           -4.20934580918619       -0.90829729815674       -0.58742415434258
N           -5.09592448692407       -1.55756988747342       -0.92562517112040
C           -3.31122703228598        1.36503463482826       -0.04186643533358
N           -4.41795381430448        2.07253298102237       -0.27030990518044
N           -2.17729540794672        1.93077568001597        0.37284034939174
C           -1.23800153184730        0.96874913879020        0.43068646348255
C            0.08475274160684        1.33649050835397        0.50564731868497
C            1.27485490691837        0.64881583740850        0.25221741974340
C            2.48914604718218        1.32756699311895        0.10600899994443
C            2.75760899381122        2.68228337530573        0.27516173932247
N            3.02989939969346        3.79243613887225        0.40257261144166
C            3.46392137417893        0.35058996747355       -0.30872121236448
N            4.74652786318748        0.59010954283003       -0.57566807074285
N            2.92523428463831       -0.85742555544181       -0.40079025970341
C            1.62683435961238       -0.76679109046758       -0.04170792035064
H           -0.50300172376632       -3.19440858832668        1.09779056667295
H           -5.25572275496950        1.62042974612562       -0.59283774273439
H           -4.40917695662145        3.06172426816459       -0.09248294917743
H            0.21244315357183        2.40982353664400        0.61065192948815
H            5.13085695132074        1.51317826620989       -0.47143365891179
H            5.33283363590332       -0.17716868655705       -0.85616602691133
