23
 energy: -44.821475911737 gnorm: 0.000521751478 xtb: 6.6.1 (8d0f1dd)
N            4.38009194739491       -1.59277175017243       -0.00181403254599
C            3.27188599152776       -1.30328466465092       -0.00104949566721
C            1.87654489565015       -0.99527803988430       -0.00153275694041
C            1.11057007950291       -2.16203228151436       -0.00265715626908
C           -0.24622583954285       -2.43539664482095       -0.00286535290351
C           -1.39926225195528       -1.66660588676335       -0.00174768377343
N           -2.57892029727796       -2.32749666921280       -0.00184556580402
C           -3.51283644240733       -1.39119348757718       -0.00050690136435
N           -3.06546228322896       -0.13199958491502        0.00034292651550
C           -1.73118425174770       -0.22816365627388       -0.00040341360293
C           -0.98015900690632        0.95666620606823        0.00000170968350
C           -1.79086200549110        2.13258710346172        0.00208451477253
N           -2.45621508199467        3.06334379277278       -0.00001928160983
C            0.38296389463807        1.21619068921326       -0.00013252257615
N            0.73138220098120        2.51750508428805        0.00059672898096
C            2.05402107651053        2.59175447855952        0.00067213942351
C            2.65075013726223        1.32883196354147        0.00005725477987
C            1.61531871234927        0.38383615907349       -0.00057935402832
H            1.72529109286309       -3.05758959253570       -0.00346715080684
H           -0.49094256667313       -3.49263224824460       -0.00390294431971
H           -4.56167649201222       -1.62049534999135       -0.00015114394008
H            2.54452640250612        3.54772177721727        0.00118168463167
H            3.70328052995131        1.12289683346104        0.00001393856432
