28
 energy: -52.245063847401 gnorm: 0.000953993221 xtb: 6.6.1 (8d0f1dd)
N            4.52765178862188       -2.44606413301122        0.00415535854474
C            3.57905280131047       -1.80267327478807       -0.00009819505226
C            2.36807248252192       -1.05297394671304        0.00202826179914
C            1.25241088756870       -1.92828457629461        0.00006829507920
N           -0.03804747292338       -1.80288688316886       -0.00114032388095
C           -0.90519016612531       -0.81881579547613       -0.00082776841673
C           -2.28446905626394       -1.16211681364289       -0.00340054015329
C           -2.82165248831341       -2.45207772218733       -0.00739173577327
N           -3.33814421892482       -3.47826795283771       -0.00635457790787
C           -3.06838908066094        0.00934882375618       -0.00236719762624
N           -4.40772235143348        0.07507364757497       -0.00377963689944
C           -2.17609535786234        1.11160158068307        0.00041662168396
C           -2.58977964297149        2.44428167068008        0.00127499822830
N           -2.96178135934912        3.53261651981265        0.00356469291106
C           -0.83612219200005        0.65265912644726        0.00142740972814
C            0.21072888891150        1.56588236241281        0.00372152234138
C            1.58903222095126        1.46643365179249        0.00469803655756
C            2.37738058770059        2.62930685294257        0.00685689202676
C            3.72643110768058        2.28411552062171        0.00724636996545
C            3.83144075214916        0.90154568809994        0.00535089464102
C            2.54193791688195        0.32850590904226        0.00382696967344
H            1.54206803988001       -2.97983755327325       -0.00073361786675
H           -4.87315034146155        0.96600903455113       -0.00371602901293
H           -4.95180611920992       -0.77024426453047       -0.00651800287245
H           -0.13473631007667        2.59752990223392        0.00483022180532
H            1.98419650813446        3.62921066624156        0.00796779439080
H            4.55019835261621        2.97395042963121        0.00874466312849
H            4.74822016804774        0.34184888429978        0.00518138545741
