27
 energy: -46.915682248719 gnorm: 0.000783688131 xtb: 6.6.1 (8d0f1dd)
N           -2.90198105161097       -2.77437808607759       -0.05715248195843
C           -1.99846523041668       -2.06621728844970       -0.02112860494499
C           -0.83026394823117       -1.25458809301794        0.00781043033321
C            0.38821327257779       -1.97119486696067        0.04347144723756
N            0.26625457878299       -3.33511857508085        0.11816094756839
C            1.71662260632316       -1.51775559312244        0.04442943958830
C            2.38061590844753       -0.30969998160988        0.01708384898310
C            3.78463784706082       -0.28181834951943        0.01334709857909
C            4.23894074872836        1.03441418584065       -0.02035389415407
C            3.15235502014095        1.89120239394482       -0.03550888891800
C            1.95901126678074        1.13660110624792       -0.01204789398959
N            0.82513273604820        1.76328235605597       -0.01092342993097
C           -0.43634930923542        1.39294823511643       -0.00015096995083
C           -1.44118005389000        2.36538930977282        0.00123433656317
C           -2.66850027201801        1.68304470266169       -0.00381267171658
N           -3.90584018403960        2.21065137711620       -0.03860829126465
N           -2.49570615411003        0.34986231794033       -0.00911464988088
C           -1.17638062331847        0.10003764210431       -0.00182938040777
H            1.07823832831170       -3.91216127537106       -0.00853942500839
H           -0.63744735989267       -3.76188166795438        0.00595062096392
H            2.41572481232744       -2.35283539925177        0.07072689088529
H            4.41094295293431       -1.15627398743011        0.03355553958679
H            5.27266779486843        1.33199720703021       -0.03185847970616
H            3.17403322576485        2.96342211414628       -0.06072600880267
H           -1.28602881983064        3.42509343251036        0.00259104732370
H           -4.04148111040629        3.19147560279757        0.12557415644714
H           -4.68286378279729        1.58132993546019        0.06388125837432
