31
 energy: -60.194621756331 gnorm: 0.000905020164 xtb: 6.6.1 (8d0f1dd)
N           -2.79255287749292        2.68171936000057        1.74233959071171
C           -1.92543937793530        2.22070888587634        1.14651089734441
C           -0.75956762848868        1.67178726130549        0.54814717331023
C            0.29300658259368        2.60294519826048        0.42306133097998
N            0.02504385056068        3.87905811760707        0.81402844684332
C            1.56958927424534        2.44049240525215       -0.15742449324154
C            2.42589252057962        1.38329582290344       -0.33009421165553
C            3.77511863043888        1.57686101923837       -0.72507053331233
C            4.43210575807775        0.38532072557934       -0.50082000453098
N            3.61441145250696       -0.56594342225659       -0.02256876923088
C            2.38499879067753       -0.04780043404552        0.05004655562780
C            1.34049545396185       -0.94072811993845        0.30350991670249
C            1.81934432234885       -2.22647286522032        0.68829442496602
N            2.19699275208472       -3.22282868838581        1.10879278169182
C           -0.04235720429051       -0.82831615524854        0.11956672316499
C           -0.85005393580692       -1.97068468416648       -0.09028166244425
C           -0.48571919868381       -3.30950350958954       -0.26349271442532
N           -0.34522946709266       -4.43101635963942       -0.47242514413530
C           -2.19527992293483       -1.56671709307079       -0.26776355830507
N           -3.22775852705700       -2.36206151375319       -0.56359792245159
C           -2.24315966674282       -0.16126134691518       -0.08712829797861
C           -3.42637279626442        0.55811276572469       -0.28133258713253
N           -4.43420678354598        1.05331472866637       -0.52678605371311
C           -0.94141763164033        0.32981311321919        0.14839820694207
H            0.73388174857328        4.58725738864250        0.75147844071887
H           -0.86966988360245        4.12376913313391        1.20159250611392
H            2.02185799877600        3.39383732810255       -0.42023695511847
H            4.20014655420247        2.49583879038951       -1.07844851662405
H            5.47002680614151        0.16013218902782       -0.66462316645861
H           -4.14620517770820       -1.97224527067732       -0.69268778687362
H           -3.08082933297574       -3.34984422922229       -0.68781778227865
