25
 energy: -48.275056783236 gnorm: 0.000500394260 xtb: 6.6.1 (8d0f1dd)
N            4.08747148600819       -2.35208388986011       -0.69701518670946
C            3.41329331856172       -1.46108690159554       -0.42817954635296
C            2.58559799270156       -0.38541188703763       -0.10726049348892
C            2.99146333938416        0.87618334772366        0.38006461496250
N            1.97060305270885        1.67078242005162        0.61706675036699
C            0.83499487867940        1.00446390758312        0.28122223273421
C           -0.32371799030961        1.75673465059268        0.20899192986910
C           -0.18411269532013        3.12868309208556        0.52866687150317
N           -0.14592498676204        4.25308192239242        0.75342798667968
C           -1.65110094021233        1.37260911301430       -0.20632793379080
N           -2.39441348882397        2.30458305201983       -0.83792167295650
N           -2.25698902892963        0.26825877487801        0.10064019888098
C           -2.03293411831109       -0.99042085866226        0.28870547021978
N           -3.01398662774410       -1.77469334789769        0.76509572565742
C           -2.63912641511903       -3.03364039593390        0.55089369479681
C           -1.38342342139546       -3.14447505847967       -0.05348782060047
C           -0.88577384131754       -1.84147097164286       -0.17077218405939
C            0.43958055497182       -1.52538618086582       -0.39659697525349
C            1.17003740811189       -0.37060751754117       -0.14502411394483
H            4.00016177120858        1.20293478023679        0.55620616354065
H           -2.06336551571548        3.25153082538540       -0.92015194488477
H           -3.37056155169478        2.10956676932208       -0.98815930194159
H           -3.29079295894777       -3.83982362715348        0.83781622509123
H           -0.87694908041735       -4.05103220059521       -0.32097604539441
H            1.06025245128449       -2.37851557762095       -0.66156403412528
