23
 energy: -44.810033903756 gnorm: 0.000593918939 xtb: 6.6.1 (8d0f1dd)
N           -4.59819960610951       -1.91487691434405       -0.00376620559646
C           -3.84812872415086       -1.04614621988110       -0.00333788594570
C           -2.95774546434554        0.03500598048616       -0.00253444527730
C           -3.33815329019922        1.39855650479151       -0.00284656955503
C           -2.20929501994543        2.17932696892915       -0.00208465960497
C           -1.04807491212137        1.35659814678426       -0.00129424704160
N            0.11543017059781        1.92251369990476        0.00018710568195
C            1.34764400134277        1.45866802308452        0.00173768025442
C            2.43450184482866        2.34187808652956        0.00287352837426
C            3.59255527328094        1.55526953919662        0.00466097635595
N            3.32350717127849        0.25876124312404        0.00478182125833
C            1.97918662304185        0.10766352008223        0.00284198724094
C            1.49323384907124       -1.19412831595594        0.00157791928624
C            2.51336073863056       -2.18782612390585        0.00229896578910
N            3.28442050620377       -3.03425379569357        0.00312983257755
C            0.18986152453758       -1.75139760534821       -0.00073055556457
N           -1.01407334445058       -1.26697066683310       -0.00154287469930
C           -1.55009319454687       -0.07002933063280       -0.00174059905924
H           -4.35659949518848        1.74314465989139       -0.00363849494542
H           -2.16829875209735        3.25213384171835       -0.00212105481799
H            2.36989754980757        3.41129882479219        0.00249888972620
H            4.61318054468416        1.89291406918617        0.00592359183977
H            0.18450926984967       -2.84079216180680       -0.00174963647694
