26
 energy: -52.785251023047 gnorm: 0.000504298650 xtb: 6.6.1 (8d0f1dd)
N           -3.93246219974252       -2.41631212305960        0.22987984345649
C           -2.82085937966231       -2.15405158937187        0.11045667690893
C           -1.45129831842703       -1.95433958559799       -0.08419450488488
C           -0.59311926887080       -2.96545856613213       -0.58754993541389
N            0.64017554010314       -2.54694741450826       -0.73596228645108
C            0.69263736059993       -1.25027250471253       -0.33197975231663
C            1.95533610386409       -0.72903236658471       -0.13117823722141
C            3.03555287205698       -1.60692193590003       -0.38968388153113
N            3.96227969391820       -2.26316560430755       -0.55005650588840
C            2.34811227481949        0.57295577355853        0.35714071160418
N            3.45209271068437        0.64624600756857        1.12175081844766
N            1.81394345561666        1.69229456081029       -0.01526811893443
C            0.67022849860486        2.20109451310947       -0.33577819858960
N            0.60768124740239        3.43284541021913       -0.86111748947854
C           -0.65236823405062        3.84084444459133       -0.73527519827273
C           -1.48728172418702        2.89454048262616       -0.12831911604820
C           -0.70665441890443        1.75093845205381        0.06172798838021
C           -1.20284105145356        0.47397778909317        0.33377751403392
C           -2.54097720624265        0.49709388290703        0.81967565549569
N           -3.57941095703744        0.59531659549304        1.29397472862250
C           -0.66577760642689       -0.78920484554129        0.04540634321849
H           -0.87567146832595       -3.97187249998784       -0.83639418155574
H            4.02635717975513       -0.16703036711540        1.27075570455747
H            3.81976408845702        1.55665750628945        1.34513901999670
H           -0.93576427371758        4.81755150716955       -1.08439507604979
H           -2.53399503013219        3.00265002502802        0.07686613581409
