29
 energy: -46.361034726182 gnorm: 0.000629465133 xtb: 6.6.1 (8d0f1dd)
N           -2.72787571506375       -2.96680093505031        0.34695943361516
C           -1.87874532536044       -2.20869074252647        0.18252577537543
C           -0.79663119642486       -1.30001845093838        0.03601885144515
C            0.45220247744151       -1.95150506662640       -0.04166995683160
N            0.40289432467428       -3.33338594651585       -0.12376343677277
C            1.76528280216944       -1.45635659532540       -0.11208073052057
C            2.41385505124848       -0.24473923036326       -0.05353461585435
C            3.83235686046141       -0.21498101553229       -0.08979254479942
C            4.27167806231476        1.08834777025404        0.01586332744975
C            3.15821754538635        1.92509518440431        0.10972807806959
C            1.98540264614010        1.15821105665271        0.06419687676100
C            0.74252045530353        1.76898564745934        0.08117163006845
C           -0.57358308362166        1.34985268299274        0.01585509993457
C           -1.59482869361774        2.31773681045791       -0.00664828767500
C           -2.83994184108378        1.69125071615872       -0.06203280938041
N           -4.05248409795934        2.30262909538068       -0.17377410329636
C           -2.61924815095668        0.30577726610770       -0.05556338336003
C           -1.24751998726724        0.03711046323851       -0.01220118462382
H            1.23920297885128       -3.84794429943646        0.09058799454460
H           -0.46411501991352       -3.80033374501037        0.08190569364985
H            2.47784093054574       -2.27358035522960       -0.21233335870436
H            4.45496344396010       -1.08732394729049       -0.17676463739805
H            5.29789881805281        1.40995014474643        0.02296096804318
H            3.18499500793403        2.99643537150572        0.19636213114348
H            0.82243593119953        2.85234189180199        0.13660545542081
H           -1.43073167802011        3.37990338121681        0.00877112239605
H           -4.87193616566297        1.75085916483250        0.01527725296875
H           -4.10946464204520        3.27972285093446        0.05717621475355
H           -3.40089116848590       -0.43001285499923       -0.09313422242272
