30
 energy: -60.479252372594 gnorm: 0.000511783264 xtb: 6.6.1 (8d0f1dd)
N            5.03278265674965        1.11953863393538       -1.40579785058431
C            3.97488987687217        1.20337800388027       -0.96586501544595
C            2.68346836646427        1.39080320656834       -0.46924679974542
C            2.09434063754943        2.63487769708836       -0.21815951401804
N            0.84938387702852        2.52589540365220        0.23079623679716
C            0.52603505101461        1.22260394561889        0.26621454456927
C           -0.83142194099302        0.94146392921273        0.46649193841457
C           -1.56688505237584        2.09924231773528        0.85389866654749
N           -2.15598402186362        2.99879967942959        1.24750010930204
C           -1.58841855275947       -0.19212975193008        0.15382820835747
C           -2.95703526300518       -0.18174585133830       -0.13468113993683
C           -3.91310007937003        0.82675520041124       -0.00858873600154
N           -4.81086037652088        1.54485282793370        0.02924822570093
C           -3.31323864783790       -1.45031939409422       -0.72283730981900
N           -4.54062628399513       -1.73839421290348       -1.16766022583522
C           -2.18943043579406       -2.27112992186334       -0.72142227906807
C           -1.12492512162019       -1.57883444066266       -0.13355487853256
N           -0.05547547942186       -2.18287081991309        0.29451498238089
C            1.15433220099522       -1.94178263729581        0.68496769740951
N            1.70450343687017       -2.83546317281105        1.53300132435995
C            2.02356303708661       -0.91233679680291        0.15470710484305
C            3.34616397024383       -1.36725136302180       -0.03838734310921
N            4.39019877306872       -1.83557465035345       -0.13850218891596
C            1.71618570113238        0.41173003865741       -0.09773009942863
H            2.54278549311299        3.60074940041356       -0.36109511609601
H           -5.27724057453874       -1.05777372193463       -1.07953296909741
H           -4.73538576131877       -2.62300066197940       -1.60202302675817
H           -2.14685970486712       -3.28831722972434       -1.05729464277508
H            2.69655215950876       -2.83434674421791        1.70245868193576
H            1.16658739402344       -3.64507959516382        1.79299383346100
