23
 energy: -44.031266911148 gnorm: 0.000661139922 xtb: 6.6.1 (8d0f1dd)
N           -2.87296030035922       -3.03338319509538        0.00205043833590
C           -1.99471698184329       -2.29750420542613        0.00225311650753
C           -0.84866953154018       -1.44867869704218        0.00098058401392
C            0.35721762005772       -2.16555590950384        0.00170283627583
C            1.68537396830111       -1.80660353362945        0.00137055268108
C            2.36058922885336       -0.58568928465783        0.00018728190577
N            3.69404247784593       -0.61273141748210        0.00017603692651
C            4.08097537673978        0.67504001374876       -0.00109708838301
N            3.12376601517321        1.57499906655641       -0.00193331627739
C            1.96532271324256        0.86937504133850       -0.00119798150000
N            0.85659722551661        1.53279183236478       -0.00174685279261
C           -0.41337441352801        1.19730031462029       -0.00139651875223
C           -1.39246389637828        2.18406315851379       -0.00221838430356
C           -2.64083473371181        1.52567045296307       -0.00167065595857
N           -3.85664166706575        2.07509342547365       -0.00204621955650
N           -2.49538611791256        0.18643477392795       -0.00051498838281
C           -1.18962930974720       -0.09399069880354       -0.00027488450802
H            0.19446612492113       -3.23931198901383        0.00273640979966
H            2.38411295149848       -2.63660566221694        0.00218527802444
H            5.12188132287064        0.94415464952401       -0.00141279959249
H           -1.21556826864770        3.23999082183881       -0.00311079792475
H           -3.97555059632462        3.07191842596756       -0.00335152136425
H           -4.65811054386193        1.46774822963365       -0.00184058697445
