26
 energy: -43.211720195827 gnorm: 0.000346093227 xtb: 6.6.1 (8d0f1dd)
N            2.85697444310788       -2.96059064478395       -0.00348243265920
C            2.48821174847294       -1.87005578699222       -0.01584003343080
C            2.08780108616627       -0.53596260410878       -0.02075516231163
C            2.97677391403730        0.55917970058375       -0.01564316680048
N            4.32542630783075        0.48197353325226       -0.05898765462493
C            2.20050511318070        1.72543825566953       -0.00998223562128
C            0.83847512916477        1.40826831577349       -0.01043261795356
C           -0.10224381342788        2.44412096019146       -0.00735299501725
C           -1.47765610563769        2.54508952143602       -0.00236253124743
C           -2.52882316895768        1.63124009676800        0.00525141317443
C           -2.63524545252909        0.25476900172704        0.00654790201448
N           -3.90035896707124       -0.23594929145825        0.01763427768319
C           -3.81831509361022       -1.55834497719370        0.01388301745054
C           -2.49674288031613       -2.00719510975790       -0.00027786243064
C           -1.68192737070135       -0.86788141368401       -0.00450807403250
C           -0.29363818255847       -0.96417098523467       -0.01612932296009
C            0.74504856151882       -0.05827086860612       -0.01641618469345
H            4.87374563430451        1.30924056217367        0.09437456920141
H            4.76865292321804       -0.41206674320122        0.06376922744900
H            2.59975200246187        2.72370649284748       -0.00596334951402
H            0.38957394115439        3.41334104094684       -0.00862897637532
H           -1.82329768430771        3.57358815999367       -0.00231563776725
H           -3.51354248381108        2.08747987688734        0.01232434458618
H           -4.71117697424115       -2.15840104313838        0.02157519232915
H           -2.16300143881737       -3.02726743134808       -0.00615937227692
H            0.04950648786871       -1.99718458144339       -0.02415388057164
