28
 energy: -51.449981521159 gnorm: 0.000993331721 xtb: 6.6.1 (8d0f1dd)
N            3.80917369504563        2.16178934076506        0.02617694049706
C            2.73951663325978        1.74370371130390        0.02180662381235
C            1.38867792957558        1.29992554734259        0.01892900563243
C            0.42554043026900        2.31835840122618        0.03666840522769
N            0.90944735239574        3.59186864422422        0.13022826635474
C           -0.98846948757891        2.25968267124393       -0.03880100447457
C           -1.98590366988755        1.32289975132407       -0.05512178173156
C           -3.33513313488687        1.77411068470271       -0.12555743695458
C           -4.18888750760828        0.69924603354600       -0.07024358642469
C           -3.43031782981005       -0.47652970571196        0.03171995543536
C           -2.07270515142343       -0.16130950619889        0.03308212300589
C           -1.09479361481789       -1.15818048333667        0.08411907913302
C           -1.59304902526534       -2.49020824177611        0.17606266938785
N           -2.01179913511774       -3.55431385136997        0.25612339956002
C            0.29993829766437       -1.14584206379631        0.03370529354750
N            0.92976439198448       -2.33541665143321        0.02111748397612
C            2.23396928153973       -2.04880931206829       -0.04187051210808
N            3.18312101895001       -2.98542467539933       -0.07174831631696
N            2.52192138316885       -0.73078831729584       -0.05996101426247
C            1.34247524001218       -0.10620349149222       -0.01333570647616
H            1.90175484791620        3.75558258682736        0.11994644465801
H            0.29229118727291        4.37923372310316        0.04889785189382
H           -1.40255215735107        3.26569787233813       -0.08608158645671
H           -3.62087195869860        2.80709803069313       -0.20122794662086
H           -5.26240775946189        0.74157585959845       -0.09947309785794
H           -3.83035288497757       -1.47129460251363        0.08900383717702
H            2.91371185547525       -3.95187017987043       -0.09083794605126
H            4.14252416245534       -2.70590369957614       -0.16325102046205
