26
 energy: -53.574266134050 gnorm: 0.000785108866 xtb: 6.6.1 (8d0f1dd)
N            4.69082101030339       -1.60675049672393        0.13042924177694
C            4.02461222967595       -0.67879910201336        0.02212773761658
C            3.24151738441363        0.47270879464570       -0.11756078876885
C            3.71301144886057        1.73735783905546       -0.53970102936644
C            2.67134028190673        2.63809173719887       -0.54538073060371
C            1.49352022976862        2.00304042369125       -0.07666725841038
N            0.41408945302383        2.66378451133237        0.18657132972241
C           -0.80817542583442        2.42883182746857        0.53397354767430
C           -1.66054680046756        1.33158905571601        0.24868548700100
C           -3.02795998835131        1.68799775615950        0.39930769593018
N           -4.09973551809519        2.04114801788014        0.59801142596209
C           -1.37913316395470        0.00222175100183       -0.06363326603980
C           -2.38757545753305       -0.94852745887341       -0.35956252469286
C           -3.67965834367903       -0.69118749268708       -0.84062724053006
N           -4.72645091583047       -0.54587830492889       -1.28754886166333
C           -1.88353765929754       -2.24771562908958       -0.17360175494053
C           -0.54475848069560       -2.16388520968146        0.18670545571761
C            0.30135557664876       -3.24799339175278        0.45722430321373
N            0.97312411684171       -4.14970513672950        0.68264574401034
C           -0.13692937622825       -0.79042678480900        0.18743825415495
N            1.12567067644298       -0.51272477587358        0.26325532991131
C            1.85096371618768        0.55991241625311        0.12772409515536
H            4.73400535372987        1.94532707754117       -0.80315254982606
H            2.72379864995123        3.67738350320045       -0.80933092889190
H           -1.30232622379843        3.29282931321578        0.97334217717625
H           -2.44602737384441       -3.15384610999424       -0.30630518431278
