29
 energy: -61.544754815788 gnorm: 0.000751146749 xtb: 6.6.1 (8d0f1dd)
N           -4.27627932358155       -2.37198688751131       -1.00983121733232
C           -3.30617546115167       -1.82347675621997       -0.74392603662936
C           -2.05938669748388       -1.18810113907529       -0.50743570196233
C           -0.96239441350419       -1.94976836738863       -0.95426333588176
N            0.27259056669825       -1.91248408785663       -0.58003260882776
C            1.17975966735897       -1.10628088354084       -0.14737077437912
C            2.44620540001833       -1.57507316915364        0.30298634094035
C            2.76688649417417       -2.89284029368645        0.64063681991768
N            3.07288186784563       -3.95994467808436        0.93331694952312
C            3.35668308698894       -0.50644418732707        0.28300469539473
N            4.65293579736733       -0.54873282994282        0.58824843085134
C            2.65142352452746        0.67569042268963       -0.13746632365511
C            3.34478297444111        1.87875639268253       -0.30840551414383
N            4.05133210590296        2.77687043691477       -0.42509456969368
C            1.29440153472141        0.36996590566462       -0.29268811768355
C            0.26085364911455        1.31522178473962       -0.30514172296154
C            0.66676064104227        2.68133097979134       -0.38642311821894
N            0.99585384936138        3.77028709569559       -0.51267312796601
C           -1.10417630575048        1.19952145262000       -0.02304051734374
N           -1.71306036605231        2.35282208344902        0.31953464373106
C           -2.94932329652966        2.07947965571430        0.69343341937807
C           -3.25503193270901        0.71116615986884        0.55117627695680
C           -4.47637976024266        0.12714183183050        0.90432296821909
N           -5.48471406086170       -0.29622502872568        1.25192637408798
C           -2.08451261114111        0.08874192313805        0.06162856087890
H           -1.19875102094976       -2.80756914747926       -1.57961501309457
H            5.07584526918239       -1.41032843685945        0.89179212731195
H            5.22217092769994        0.27717117832705        0.49552663115393
H           -3.60007957298580        2.85139336512902        1.06039817592995
