28
 energy: -57.032897837158 gnorm: 0.000717972090 xtb: 6.6.1 (8d0f1dd)
N            4.98379627904436        1.42410423238420       -0.86375593915734
C            4.19412762480560        0.67177375122626       -0.50404631011351
C            3.33375792890379       -0.33673397300516       -0.05597503781652
C            3.82237337904767       -1.48817410907161        0.64399277090341
C            2.79105643605611       -2.33603419567981        0.91230272431556
C            1.60210548433047       -1.81461841069337        0.30561510336542
N            0.60299921750841       -2.57224382379425        0.05210627379788
C           -0.57767563231892       -2.51669956256510       -0.50122391707982
C           -1.55708899292772       -1.53462209417210       -0.40773084064733
C           -2.85570436084928       -1.97625901087511       -0.76746632621977
N           -3.87615681439381       -2.35910968858956       -1.12252623655032
C           -1.44350527644417       -0.17527315721303       -0.03460271799755
C           -2.53889475359838        0.64170218989021        0.25451608036265
C           -3.86217160405885        0.31373657023716        0.54964296734976
N           -4.96012914602149        0.15129436373082        0.84707451647534
C           -2.04584696090110        1.99205405668288        0.26273664944113
N           -2.75341465557906        3.09012952756814        0.51829818107822
N           -0.74763526272303        2.02555766280529       -0.02657860969666
C           -0.30930809528026        0.76123566485298       -0.16919090782164
C            1.07083736473912        0.63011662020072       -0.39039374564987
C            1.67052685312925        1.89907470313304       -0.64526803210613
N            2.13268062772382        2.91696827866552       -0.89224335092567
C            1.94411454327826       -0.44168634822783       -0.18706703435483
H            4.85625970757128       -1.62925840077249        0.90150685203009
H            2.83976487046905       -3.28988224605110        1.40000636518327
H           -0.88597552028996       -3.46427608509466       -0.93675439256113
H           -3.73339758833490        3.02995532516394        0.73566450184074
H           -2.29228283306354        3.98293624986499        0.47655201928400
