29
 energy: -55.971906473626 gnorm: 0.000578941889 xtb: 6.6.1 (8d0f1dd)
N            2.98056664368726       -4.20992921497340       -0.00223138065573
C            2.86651464453509       -3.06660039575406       -0.00112816129005
C            2.72822460670307       -1.67823737283884        0.00001504991063
C            3.77269582273776       -0.73151051964992        0.00129148318295
N            3.31767238328708        0.50325241863664        0.00224602291044
C            1.95830382119542        0.45782389151968        0.00178551612012
C            1.35495132722146        1.70832559708053        0.00364236414178
C            2.35246407907057        2.72985506376817        0.00469578960361
N            3.08748075788813        3.61096266901389        0.00549394922623
C            0.01589987860135        2.19809161926407        0.00480119081409
N           -0.10394100353443        3.55366523906161        0.00982269840935
C           -1.20226929544013        1.51379231984304        0.00168890282348
C           -1.64524416691334        0.20048240724143       -0.00239332010902
C           -3.03141358414960       -0.07639736593227       -0.00545581604927
C           -4.07937227321911        0.83761136090312       -0.00534715233478
N           -4.95502137120827        1.58430380332351       -0.00623104221282
C           -3.16702326757982       -1.49306530228002       -0.00857127439804
N           -4.30761661804698       -2.18885610848386       -0.01223582050870
N           -1.97155140385723       -2.09020359014836       -0.00734870819177
C           -1.02192579208291       -1.13773012103410       -0.00382493278497
C            0.28721532898448       -1.58337436877379       -0.00218173468752
C            1.51597171137050       -0.94767845254150        0.00005473406750
H            4.82832502702555       -0.93327565734045        0.00153979264343
H            0.71014512124481        4.14367152041143        0.00989532736206
H           -1.01217295630878        3.98199398744977        0.00811012411520
H           -2.04382188106944        2.20526244289868        0.00251412983456
H           -4.26116044689404       -3.19242906570744       -0.01403610660172
H           -5.19648588605805       -1.72112745257610       -0.01295169724572
H            0.34386883000968       -2.66808046978151       -0.00355292919537
