29
 energy: -55.960243497882 gnorm: 0.000867763297 xtb: 6.6.1 (8d0f1dd)
N           -0.61888650901019        4.66306249082659        0.04671968368659
C           -0.90258218842160        3.54992597294151        0.07731893623170
C           -1.35690931358649        2.23387440698053        0.18118969392373
C           -2.63468969390755        1.90160948210553        0.68599958176546
N           -2.82635970349442        0.60288842664819        0.75512371889084
C           -1.70196989694171       -0.00569643381663        0.30091780995901
C           -1.80782661081107       -1.35901429865977        0.02886801058628
C           -3.08851297628796       -1.91837521104665        0.25028962989580
N           -4.09713162903872       -2.44970019369389        0.38720508510622
C           -0.83372054727574       -2.29470732448442       -0.46711379741991
N           -1.30020363583586       -3.33139691581928       -1.20158710479068
N            0.42617694867783       -2.34884523887593       -0.15631966802362
C            1.41002351823034       -1.54976075011436        0.14523390083958
C            2.63800294724996       -2.03503178329636        0.59568667054385
C            3.59902767986437       -1.02371603861107        0.46312610407323
N            4.90303152716965       -1.11863817133025        0.76437424071833
C            2.97156302608174        0.13600966058844       -0.05738631863401
C            1.60948926037397       -0.09875771455000       -0.17770502433219
C            0.67402529727188        0.92753504055329       -0.37759412183394
C            1.26912162136152        2.13008751650517       -0.84830038848091
N            1.79342746334375        3.03279054514596       -1.32290975700283
C           -0.68102750339233        1.01018577743749       -0.03407484358606
H           -3.39562313867341        2.59416404780094        0.99649961427733
H           -0.66777933918611       -4.08480150769666       -1.41238811547819
H           -2.29110292093310       -3.48522130363712       -1.28617059486222
H            2.81676273389150       -3.04070276100008        0.92164207965694
H            5.27351031916958       -1.96061116886634        1.16644474909192
H            5.51913801948360       -0.34371918197464        0.59477507344345
H            3.46856949312612        1.06794008853870       -0.25166397724529
