22
 energy: -45.089461655685 gnorm: 0.000839609659 xtb: 6.6.1 (8d0f1dd)
N            4.54013729661307        1.90248126818279       -0.45928853233762
C            3.81688144665468        1.02650994646488       -0.29728234901995
C            2.94346925269247       -0.05179080417130       -0.10946071031783
C            3.29016403942037       -1.41162387276752       -0.14725798248676
C            2.16508163335240       -2.18619585815411        0.09004168517661
C            1.05369257322954       -1.35422850294988        0.30944915085160
N           -0.15048874694562       -1.82554096902858        0.36108715618420
C           -1.35440556776209       -1.39363793486221        0.21934346982735
N           -2.40654958891458       -2.23176459192903        0.29799765413055
C           -3.43402944387353       -1.55813081223258       -0.18804249066333
N           -3.19634677802545       -0.29396391667599       -0.56108820211642
C           -1.92370359866431       -0.06289521949561       -0.24907088134217
C           -1.46883872209801        1.23930064883334       -0.03612901020341
C           -2.47563635987792        2.23589879552774       -0.13612194160619
N           -3.26036913860874        3.06828663289859       -0.19829853783121
C           -0.20880502043645        1.72174374796117        0.38502259430577
N            0.97318917117300        1.21283104525247        0.28093191609912
C            1.56439501522827        0.06948150917196        0.20698103560608
H            4.28386821673624       -1.78005805708111       -0.32758809530042
H            2.12245493651194       -3.25825024350119        0.11859647614146
H           -4.40917748952519       -1.99779559528443       -0.28689446048817
H           -0.19992319057888        2.75685015254171        0.72146842009084
