30
 energy: -55.677172121486 gnorm: 0.000897788138 xtb: 6.6.1 (8d0f1dd)
N            4.96249752366944       -0.52230296637851       -0.86271186131716
C            3.87965726573744       -0.77270269197590       -0.57074331828014
C            2.56544765721601       -1.15821522373690       -0.29628392989890
C            2.10861226680230       -2.49700882206350       -0.34423704244069
N            0.81832433790770       -2.58315730045987       -0.12434260293201
C            0.32833816003959       -1.32014804083979        0.00423972520245
C           -1.04318855026510       -1.23121455926711        0.20526305819331
C           -1.62231882065354       -2.50624226233253        0.47748301806604
N           -2.12674168536640       -3.50194554550309        0.73665640867355
C           -1.97293971313316       -0.18794511987877        0.06103504398565
C           -3.33705723012286       -0.43317518502316        0.07072564232524
C           -4.03772326894846        0.73896407628118       -0.31690832121449
N           -5.37957102682348        0.84076653671299       -0.40361075323037
C           -3.09984316992574        1.73729394251810       -0.54524730398469
C           -1.80055188605547        1.24383914453107       -0.28206879918006
C           -0.74168586218311        2.11727575529486       -0.26844817036912
C            0.62109687223858        2.09691493431710        0.10704852647792
N            1.14340952517245        3.34266174734989        0.31130347842252
C            1.52367851611697        1.02340744291668        0.21461664706357
C            2.81155691596876        1.40183032316607        0.67494460032896
N            3.79964771036202        1.74893946110170        1.14731667104045
C            1.42773529197788       -0.35476443141632       -0.07525134965900
H            2.70390307382480       -3.36988160425435       -0.53939183275803
H           -3.79963763004125       -1.37601918488858        0.29557350741375
H           -5.79573061560160        1.66046101881822       -0.80746231675292
H           -5.94570516166369        0.01718211152128       -0.30440833764087
H           -3.32090732041831        2.74745659129750       -0.83565854846023
H           -1.05891082362562        3.12882652901370       -0.51208890810135
H            0.54318480472429        4.14534281950498        0.33915264921272
H            2.10332071516998        3.45170870087302        0.58999009231413
