24
 energy: -48.562050638099 gnorm: 0.000756581436 xtb: 6.6.1 (8d0f1dd)
N            3.70797605501048        2.45224397550699       -0.48943251183026
C            3.14863618066906        1.48114021305015       -0.23740418203748
C            2.57472963662313        0.24459210652066        0.07494608496987
C            3.29251071978757       -0.77487089254850        0.77388349576128
C            2.50889379233402       -1.88333769201935        0.93053875031945
C            1.28815310054089       -1.67043785928739        0.22769808540809
N            0.55945459702643       -2.63341293678025       -0.19978177022075
C           -0.56644636598869       -2.73046841296289       -0.87013349266204
N           -1.69223819287787       -2.15872019923864       -0.60276644294045
C           -1.97475369517498       -0.98803889861583       -0.09818500935322
N           -3.17675028677861       -0.67950396517350        0.36877891237840
C           -3.19639821287705        0.66637638341705        0.41635664409246
N           -4.25710825129550        1.35275054165992        0.82017212315553
N           -2.05648315194386        1.28338424447700        0.02853037112149
C           -1.20256581267607        0.30154026256266       -0.24116499405386
C            0.16393144643057        0.59086133845318       -0.41739072637148
C            0.38698786770467        1.98534495687451       -0.59065452418565
N            0.52110606199990        3.10659197310517       -0.78104336340875
C            1.27758380749497       -0.21605026442282       -0.18548653296106
H            4.30316027615582       -0.65353475937346        1.12009177841497
H            2.78414259393741       -2.81570920892856        1.38237118696221
H           -0.60205854390462       -3.54111600852348       -1.59317988421627
H           -5.08142680957407        0.85891770373772        1.11297343635913
H           -4.23094343282374        2.35675386121051        0.78708086779841
