32
 energy: -64.718226898785 gnorm: 0.000904977461 xtb: 6.6.1 (8d0f1dd)
N            5.57241499326555       -0.15817530382197        0.91240314139973
C            4.51958257492627       -0.50815081496518        0.61721625237808
C            3.24361816717788       -1.00933608359923        0.34140331411248
C            2.88318222600382       -2.36734245571155        0.48101008643988
N            1.60818673842658       -2.56439451958133        0.22481733853195
C            1.02884912536165       -1.36279922039865       -0.00473615099683
C           -0.34638789275953       -1.40534327450650       -0.22413068952915
C           -0.77993737061580       -2.74510788714998       -0.45762607450218
N           -1.10526459757189       -3.81201322001384       -0.71593584141019
C           -1.35410725007577       -0.43516014420351       -0.12262091907223
C           -2.71563183072132       -0.77714114556391       -0.05454308132266
C           -3.37446218462143       -2.00464455769870       -0.18599456062936
N           -4.09123907575437       -2.89993300659031       -0.26157562967234
C           -3.49200672023792        0.38773682675688        0.24699021855251
N           -4.81848798529070        0.40701321404124        0.40829949223954
C           -2.60519492219753        1.46740132495320        0.33230495994383
C           -2.98261771326861        2.78780047126548        0.57832013933000
N           -3.30007023988333        3.87606870941682        0.77184779257386
C           -1.27054293344196        1.01953753962931        0.06896601978555
C           -0.29045897333612        1.97003063756132       -0.08189027152615
C            1.06706929553119        2.02417691166810       -0.47052017656336
N            1.46595548890393        3.25503707072446       -0.88295826065452
C            2.06660360908977        1.02915725623362       -0.40373166254505
C            3.34661639805978        1.47848200984936       -0.82633465952592
N            4.33313828590612        1.87729481075225       -1.25716368773390
C            2.05837476024570       -0.30935770860380        0.02353456722444
H            3.52777728103415       -3.17867880105359        0.76404679554954
H           -5.34786753974325       -0.44377474589118        0.31168941152829
H           -5.29296500266439        1.26377517582284        0.63616126238909
H           -0.69345037845207        2.97325658726831        0.04744048589448
H            2.42848838851766        3.43660645465351       -1.11297265402859
H            0.81446194059129        4.01930181595901       -0.90595120976382
