30
 energy: -60.486230024859 gnorm: 0.000924742959 xtb: 6.6.1 (8d0f1dd)
N           -0.00037687686631        5.07690694395406        0.05823513650650
C           -0.59514923450647        4.09452668969075        0.03435329552724
C           -1.31469747675885        2.89894828830025        0.00785295646510
C           -2.70954984761262        2.76010400575730       -0.03623039168408
N           -3.07900719220619        1.48986037498787       -0.05070849545339
C           -1.96871737291110        0.71919847063259       -0.01828429488938
C           -2.23489758033473       -0.64943788178155       -0.00221340974451
C           -3.64861974248541       -0.85589934175408       -0.02223844580388
N           -4.76808420787595       -1.10621296471434       -0.03925293198281
C           -1.47733803469238       -1.85137778611957        0.03064604134383
N           -2.20885087548528       -2.98987261341775        0.08963573965047
C           -0.07085965112081       -2.03851917271521       -0.00273264938757
C            0.32922703123716       -3.40945362901354       -0.02409382679638
N            0.58263102411466       -4.52830912106151       -0.04761961003778
C            1.06996430167189       -1.23186067183365       -0.01800980011813
N            2.22333745415134       -1.92840417022105       -0.04996128211352
C            3.24159291441214       -1.07004144273667       -0.04051997945730
N            4.51275259565748       -1.46715079845961       -0.06609766053630
C            2.76700782373488        0.27979265222611        0.00027194157571
C            3.58645183533608        1.40464785680144        0.01683046248564
N            4.30630731109971        2.30103813380705        0.03208160201506
C            1.36088414029245        0.21179916564803        0.01075162566625
C            0.58416479515521        1.36276446276338        0.03309526676331
C           -0.77456074162554        1.58278840946188        0.01423074757268
H           -3.44081329042143        3.54715282671392       -0.05711836632139
H           -1.75470571843539       -3.88798078816066        0.09193425928705
H           -3.21460195469334       -2.94849295090868        0.08997876763581
H            4.71018611461672       -2.45265396988905       -0.09534705957030
H            5.26238740557619       -0.79756948961765       -0.05638483947922
H            1.17354876597195        2.27740529676066        0.05622887848146
