27
 energy: -52.516649422284 gnorm: 0.000880112170 xtb: 6.6.1 (8d0f1dd)
N            5.36911061715845        1.95245803278295       -0.00817226806777
C            4.53089205179611        1.16695991173031       -0.00606728574784
C            3.50461107283426        0.22096182157762       -0.00231986941148
C            3.65001194687380       -1.17947917727602        0.00094377529426
N            2.48358977012852       -1.79459501497115        0.00372186093985
C            1.50865430702389       -0.85408326052358        0.00260584667249
C            0.20394330818925       -1.34069082627368        0.00517808977262
C            0.17002921722777       -2.76789519558647        0.00653568643870
N            0.08404458215407       -3.91025965368203        0.01304856754236
C           -1.05942913887717       -0.72757754843839        0.00498300300792
C           -2.22898644765637       -1.47783597385827        0.00782537493619
C           -3.35793433759505       -0.63155386798367        0.00691845052608
N           -4.63896569126480       -1.01811926600574        0.00894982453802
C           -2.89389452883768        0.70248117782791        0.00303893910960
C           -3.73108460660189        1.82060124874558       -0.00048646979823
N           -4.48100829564830        2.69093526017141        0.00300061282147
C           -1.47315004538168        0.71471047030073        0.00204171479359
N           -0.88304106989467        1.87140918339777       -0.00143417458401
C            0.34229685311531        2.33730597538117       -0.00386342840991
C            1.61873092573426        1.78591149577748       -0.00390199938987
C            2.11209198424190        0.48662846045946       -0.00131079189197
H            4.56977062946127       -1.73518296602053        0.00124503128245
H           -2.27800996931433       -2.55159302570243        0.01028470209486
H           -4.87749520860409       -1.99424703134819        0.01153855217295
H           -5.37303521316200       -0.33033223016850        0.00806477853326
H            0.33375080511779        3.42632791325046       -0.00655785821030
H            2.40662575498238        2.53365916293368       -0.00660880766472
