25
 energy: -48.276777668855 gnorm: 0.000538748339 xtb: 6.6.1 (8d0f1dd)
N            5.16489778938995       -1.18189590279848        0.76444170113680
C            4.21167392497333       -0.57186861874321        0.56543368330971
C            3.04908200204454        0.15826940461681        0.31843966117546
C            2.92444294168168        1.56142110717411        0.27908203746504
N            1.69672506197273        1.94433826464197       -0.00527482540721
C            0.92781776478053        0.83496401792585       -0.14091859091413
C           -0.42261001016165        1.06163787151841       -0.36560680476484
C           -0.74360046853377        2.44446529067490       -0.49675613609610
N           -1.06722373248955        3.53323243691626       -0.64680294486562
C           -1.55550035587289        0.22459564996596       -0.29856879592571
C           -2.85373318290695        0.67198518616313       -0.20036167420497
C           -3.62905677695789       -0.44217920606956        0.25725707717253
N           -4.93093935680255       -0.42306057357458        0.54655655347707
N           -2.89889944860125       -1.54810538883167        0.38457937024246
C           -1.64811402327471       -1.25382706494265       -0.01694403076015
N           -0.83366769401741       -2.21225414322847       -0.28084944938308
C            0.41712811557000       -2.42937155785885       -0.55978063622411
C            1.56930645217140       -1.71859301232859       -0.23368198316367
C            1.76818225542714       -0.37250279272211        0.03642186360145
H            3.70219935369993        2.28287712738768        0.45287466291781
H           -3.22473381155490        1.66067871445177       -0.38877900610462
H           -5.47995747330022        0.40621341367623        0.40785904191347
H           -5.36310660484290       -1.26718820029188        0.88017544650217
H            0.57631436093101       -3.40846921547401       -1.00683376875229
H            2.48123369407580       -2.30736689755290       -0.24096833015018
