29
 energy: -51.165994187181 gnorm: 0.000691175909 xtb: 6.6.1 (8d0f1dd)
N           -0.89209651132758       -4.73947120409219        0.02592463775835
C           -1.22449013990435       -3.63820975102807        0.01714438457259
C           -1.61026274709916       -2.30022474785846        0.00555670962738
C           -2.91477293227777       -1.79436663910649       -0.01674146231300
N           -2.92966571934526       -0.46978056520648       -0.02509350712891
C           -1.65043090636168       -0.03088898502995       -0.00549193099735
C           -1.52175242217562        1.36300370759477       -0.00074537555617
C           -2.81115555868762        1.96827232676831       -0.03978941978958
N           -3.80895370357123        2.53531090149663       -0.08212938083835
C           -0.44396590891775        2.27584888920215        0.03503429818357
N           -0.79979033413644        3.59653251724569        0.09788646018723
C            0.94512168265490        2.06553857110302        0.03323388305009
C            1.83683363197601        1.01223175452387        0.01413967603034
C            3.21707899682241        1.28564153908577        0.00444536474934
C            3.94135560301776        0.09324083829113       -0.00837980148437
N            5.28739460485015       -0.03569718599232        0.01956481409888
C            3.01563386721484       -0.96965407209433       -0.00358493998119
C            1.71610108893388       -0.46549953864658        0.00765690783928
C            0.63497549047832       -1.33315580016038        0.01366109664404
C           -0.73596516776693       -1.17186159693418        0.01065045673112
H           -3.83098877531740       -2.35614210923545       -0.02649799941838
H           -1.76623845039903        3.86200126774965        0.02073769531613
H           -0.10066286649412        4.31116698884497        0.01134259011444
H            1.47593512691346        3.01580337943395        0.05051700434385
H            3.64746502083319        2.27049396337608        0.00745058902019
H            5.86454906770200        0.77339080689312       -0.12410527818640
H            5.69727030193612       -0.93984278611747       -0.13270649853168
H            3.27188772494370       -2.01326369148575       -0.00900744226653
H            0.93528784780524       -2.37864864322105        0.01635200182519
