25
 energy: -48.276411070606 gnorm: 0.000828936584 xtb: 6.6.1 (8d0f1dd)
N            4.76752569342466       -1.69290986276222        1.44257413779228
C            4.07627801061557       -0.89580539767556        0.98741058438572
C            3.24139365311017        0.08528766566137        0.44944988648970
C            3.54254829891722        1.44960734809974        0.31314608997460
C            2.47216979698209        2.13158033545374       -0.24911513000715
C            1.40881015308971        1.24089709935581       -0.45997662948180
N            0.18262234353330        1.64215029463864       -0.60960792773761
C           -0.98348886504040        1.05578819055486       -0.49062179124140
C           -2.14394126330193        1.79626989902333       -0.29503534260966
C           -3.17884187969162        0.95205816044537        0.15527640881307
N           -4.42009082380001        1.32906403031803        0.48682529875091
C           -2.69228524961540       -0.37924790579212        0.22043383503783
C           -3.45073505750014       -1.47206147190675        0.63958383984206
N           -4.12206376162671       -2.33133411269583        1.00463430324512
C           -1.37309051177744       -0.40402085832612       -0.27864341316648
N           -0.77677754865982       -1.47570468763938       -0.68538828816153
C            0.44175064846862       -1.73079817092467       -1.07597833482220
N            1.55796354629452       -1.29275688683986       -0.55679118610448
C            1.97319108048389       -0.14933188672371       -0.14470313484577
H            4.47515947796467        1.89208489286047        0.61649656263781
H            2.42486804780722        3.18619512986131       -0.44082723507825
H           -2.21471767491099        2.86105327812647       -0.40867223065923
H           -4.71235549941751        2.28364205779292        0.37546894042812
H           -5.08082072497868        0.64558536489859        0.81649488051520
H            0.54581032513346       -2.55930297039982       -1.77075303089970
