29
 energy: -55.975215343095 gnorm: 0.000880175927 xtb: 6.6.1 (8d0f1dd)
N            2.34649116018343       -4.08862570655160       -0.15108603595275
C            1.73624393027089       -3.11849701628040       -0.15821724076475
C            0.93500642332647       -1.94776028968164       -0.20204261773274
C           -0.41140089252700       -2.19066256148603       -0.53602068788856
N           -1.49243880037342       -1.51079268405450       -0.33619916842229
C           -1.87021391120062       -0.28594371363877       -0.12728105447892
C           -3.20420289714414        0.01506663692096        0.22301492075463
C           -4.19388206358551       -0.88854080940328        0.60891551373593
N           -5.05139278865191       -1.58230830192926        0.93409728564930
C           -3.41777258457423        1.41113220632609        0.06337246122220
N           -4.58346241750636        2.03799571648689        0.27905336724555
C           -2.21139148521540        1.99702566270749       -0.34899203809349
C           -1.20721424205622        1.02715911336783       -0.39450368662532
C            0.13381779796456        1.36221529338252       -0.44455316298750
C            1.30503332297084        0.65494707058686       -0.19644635806427
C            2.53967157662588        1.31998125496521       -0.03959044297786
C            2.80148870983578        2.67953239391183       -0.15873270794082
N            3.04519115950396        3.80057765170940       -0.25224955878270
C            3.49817155624283        0.32279581165935        0.31273245471061
N            4.79101957331593        0.51767815292937        0.58252476723750
N            2.94195630190018       -0.89010172081970        0.34923851788606
C            1.64344269647758       -0.76570698804728        0.03204210094544
H           -0.61198943533705       -3.19149843788158       -0.91649712117050
H           -4.67283144526970        3.02446003724495        0.11411492424233
H           -5.38433430743851        1.51533824291869        0.58974277348122
H           -2.07057935153327        3.04264145341605       -0.55206657405640
H            0.30533639019077        2.43050069850847       -0.55632871304590
H            5.19861364849777        1.43366368761444        0.51883226736252
H            5.36026990601112       -0.27973427948409        0.80621884701356
