30
 energy: -55.693579470401 gnorm: 0.000667456265 xtb: 6.6.1 (8d0f1dd)
N           -2.23786294682983       -4.19167934482931        0.00151667336983
C           -1.66634224106338       -3.19692159119129       -0.00135092458875
C           -0.91762258036690       -1.98844837025241       -0.00028161925992
C            0.45892908481688       -2.26216527309191       -0.00061923517184
N            1.56769633361147       -1.57177774211651       -0.00104882094835
C            1.89946509746645       -0.31131145972650       -0.00118344560473
C            3.27889134866872        0.01611869239028       -0.00169385027073
C            4.35121807132300       -0.87641103920625       -0.00203243476325
N            5.28652451420120       -1.54511518858904       -0.00347459907376
C            3.42646965243952        1.42268854549407       -0.00163811745875
N            4.59538528477016        2.08271285603246       -0.00181843956943
C            2.13961610762257        1.99053465204979       -0.00101674202611
C            1.16922129975861        0.99120855778415       -0.00074783690296
C           -0.18223045094099        1.32078447575002       -0.00034866595917
C           -1.36444020407747        0.60759504963631       -0.00012775164766
C           -2.60016395308917        1.30648533793628       -0.00013824649062
C           -2.76387189331439        2.68919980104095       -0.00090192488564
N           -2.93334862629326        3.82789310183949        0.00164959352974
C           -3.66715620042200        0.37508664389695        0.00016601624864
N           -4.97511624888135        0.68202818923786        0.00017502267710
C           -3.10519711929545       -0.90904085823181        0.00002499747676
C           -1.71154915822596       -0.82515371756176       -0.00014279162543
H            0.67633593438750       -3.33155302954457       -0.00061072195996
H            4.61704652374408        3.08650931859439       -0.00238066918113
H            5.45954363237157        1.56894327248815       -0.00282643949154
H            1.93651144236586        3.04655869161937       -0.00078101403175
H           -0.34659466277506        2.39654332405271       -0.00028376517087
H           -5.66651301755923       -0.04573851357534        0.00086601074348
H           -5.26935275310653        1.64279744784986        0.00078029063201
H           -3.67080889039997       -1.82209579437991        0.00002580091672
