26
 energy: -47.211850265866 gnorm: 0.000332391724 xtb: 6.6.1 (8d0f1dd)
N            4.09451140963500       -1.68166438717205       -0.92368159571382
C            3.28769719998074       -0.91946335203162       -0.61989091665342
C            2.35676792711959        0.04853517832906       -0.25099281285603
C            2.66695206837432        1.40982658755421       -0.00341166328973
N            3.88916140243113        1.95413890385586       -0.11758735643869
C            1.48780386011090        2.06893119122294        0.37852049640665
C            0.41054670338486        1.18382736331293        0.32894078158882
C           -0.90203334911161        1.61651981840849        0.39745484016137
C           -2.10879713032892        1.00632759739426        0.09107990158579
N           -3.20917887668929        1.77557323937429        0.01172374464115
C           -4.18033868770583        0.95651101958766       -0.39870319855183
N           -3.84474775434740       -0.30741595898971       -0.58639384363679
C           -2.52538507508628       -0.37213450945856       -0.26974221282908
C           -1.93535005526973       -1.60747535081260       -0.18076385942256
C           -0.62886456747953       -1.99994760805347        0.19622617043372
N           -0.48685756740940       -3.28105267177939        0.62832596293674
N            0.51296997490078       -1.36828199376497        0.07688657093344
C            0.98201056495173       -0.16191437314403        0.00622529579460
H            4.03810376660976        2.92462057940776        0.09157712319072
H            4.66224503411604        1.39041167741941       -0.42546953720219
H            1.41871353950287        3.11301989627243        0.62257431011771
H           -1.02174488316364        2.67711591324153        0.59523890655742
H           -5.18222230425716        1.31009659920058       -0.56410243898206
H           -2.61799052461597       -2.42250676970132       -0.39283665773123
H           -1.25760389403321       -3.92335286224586        0.59777261683159
H            0.44566658997798       -3.63502566193338        0.75570646362573
