29
 energy: -56.764836668891 gnorm: 0.000787787847 xtb: 6.6.1 (8d0f1dd)
N            5.87721753539193        1.39408754466318        0.20897838143472
C            4.92749915273339        0.75168288647494        0.14120852522926
C            3.76544522449196       -0.01766564298250        0.05990743952745
C            3.68814411687922       -1.42153854296621       -0.01240214240694
N            2.43946114333399       -1.83606154418184       -0.08330960768253
C            1.62414551507831       -0.75443541180306       -0.05520288889972
C            0.26002828864117       -1.05406507648670       -0.07685946788788
C            0.07218690565665       -2.46651617987136       -0.19400430052567
N           -0.07352530303786       -3.59376244916280       -0.33141812254243
C           -0.91299281727496       -0.28832814481823       -0.01549939303119
C           -2.18647644996245       -0.89515322232993        0.05137794218836
C           -2.57926582902740       -2.23439206139790        0.17156669822435
N           -3.10420360084322       -3.24815328738582        0.30264299746352
C           -3.19886348774892        0.10377658538813        0.03914368404417
N           -4.51617901653578       -0.11670384461074        0.09461608748708
C           -2.54768492053632        1.35024275685967       -0.04047338108966
C           -3.22165197936184        2.57358929770282       -0.08078742614571
N           -3.80995759697675        3.56026347894402       -0.11387651535776
C           -1.13906894482149        1.16365925010426       -0.05387924483095
C           -0.33932378001157        2.29985684244006       -0.09130633927147
C            1.01760918384867        2.59094120806563       -0.04319884491585
C            2.17078153856174        1.83195469579220        0.02930325585286
C            2.43314913186600        0.46721476452428        0.02492327640749
H            4.50586878991977       -2.11825881162769       -0.01402603561003
H           -5.16439651481875        0.65190000787959        0.08456057300869
H           -4.86314425662025       -1.05950912157538        0.15920091624993
H           -0.94801676499477        3.19963208729795       -0.13984801191441
H            1.21425048060613        3.65687189823042       -0.05600454685078
H            3.08001684835850        2.42450823483587        0.08262410564513
