29
 energy: -60.763009329341 gnorm: 0.000233102225 xtb: 6.6.1 (8d0f1dd)
N           -5.04656252701955       -1.04939735626663        1.41762046061738
C           -3.99434120852441       -1.15184170735104        0.96925123019929
C           -2.71205006895752       -1.36164474612441        0.45673844330959
C           -2.16001636460389       -2.61603937057301        0.16584854948751
N           -0.92000541970328       -2.53291644507745       -0.29750310488965
C           -0.55770408163917       -1.23864400022950       -0.30375033300182
C            0.80075766584557       -0.99037592122328       -0.50595882888510
C            1.52694008269805       -2.15029617488221       -0.90138077130404
N            2.12962010519097       -3.04375430152170       -1.28837128969608
C            1.58470779992432        0.12556611556680       -0.17582990924199
C            2.94498261869331        0.12222149846537        0.12895201411091
C            3.92906235395779       -0.85894401769331        0.03016601363448
N            4.83125309003636       -1.57119807979640        0.00895227986677
C            3.21820643657221        1.41862011439626        0.71491698718362
N            4.38949070793559        1.79629893631334        1.21378132136303
N            2.15004915576376        2.21213473562992        0.70086811450511
C            1.15677606308019        1.52322412697563        0.12335596714366
N            0.10542587803715        2.13700984791229       -0.30616478886329
C           -1.11161620420727        1.93224220785004       -0.69028593772501
N           -1.63485153176935        2.80690538845458       -1.56702228521087
C           -2.00244244581397        0.93541869102698       -0.12751299382527
C           -3.30514867830731        1.43104558294663        0.09617415447845
N           -4.33234144072218        1.92918680614080        0.22004484157361
C           -1.72726074813935       -0.40036175306490        0.09382563260733
H           -2.63460797806307       -3.57187215985420        0.29186714862281
H            5.18325912333010        1.17863948176642        1.17476315827234
H            4.47446139846849        2.71123534444427        1.62306442113043
H           -2.62542096257329        2.82081289466749       -1.74651006092044
H           -1.07306076028606        3.58942685860218       -1.85978881854239
