26
 energy: -52.797262901922 gnorm: 0.000514802979 xtb: 6.6.1 (8d0f1dd)
N            4.55104719842217       -2.43431553113302       -0.09122439011338
C            3.58629934999354       -1.81683586980523       -0.10746188837142
C            2.36430320986047       -1.09728713477907       -0.15978123438951
C            1.26056901497159       -1.84189778173244       -0.62463455646978
N           -0.00327309848801       -1.68330027527778       -0.42068242355478
C           -0.88292309084032       -0.77845705157689       -0.13541997282917
C           -2.21431217274919       -1.12240285853136        0.21015874570239
C           -2.68158206350725       -2.39347017782214        0.55594931952582
N           -3.11547848904094       -3.41552899804892        0.84898564096212
C           -3.03310438117788        0.02088145314691        0.09410359413447
N           -4.35024363344602        0.07721874929438        0.29983279889921
C           -2.20575250138209        1.11849835904419       -0.28994756285157
C           -2.68952628722160        2.40766022014581       -0.52140505916776
N           -3.12914169093744        3.45343833784921       -0.70383933160506
C           -0.86380570524225        0.69865088165432       -0.33535105114083
C            0.19675071789688        1.58477747413019       -0.31466041875672
C            1.54235334113297        1.41219895462380       -0.01849983750370
N            2.27458153519590        2.51030979112010        0.22995081126855
C            3.47619267869154        2.06711209929406        0.59305960011641
N            3.63663109408508        0.74861037742870        0.58262525440818
C            2.45371654027050        0.24995058379734        0.18743866286546
H            1.50038923358933       -2.78272551380077       -1.11655675422932
H           -4.85353047039505       -0.74523350906495        0.58831109986544
H           -4.85115346880984        0.93859430966265        0.15805520890495
H           -0.07801326050765        2.63409243292677       -0.37159624837635
H            4.26897248713099        2.73451573206338        0.87491455880915
