27
 energy: -52.509950924371 gnorm: 0.000632440469 xtb: 6.6.1 (8d0f1dd)
N           -4.53121643731932        0.94658186554021       -1.12402490272031
C           -3.45143118562421        1.06840708520406       -0.75176094754691
C           -2.13649749857233        1.31191570877926       -0.34931197278136
C           -1.58885880162948        2.59637793259462       -0.16206183054152
N           -0.31731776510813        2.54982431531411        0.18271476865151
C            0.07167148064086        1.25345133336210        0.19337924378022
C            1.44252116732617        1.04195823986941        0.34286619553465
C            2.15048386030332        2.23168514615105        0.68668480751306
N            2.76010842984179        3.14612923124956        1.00800970497539
C            2.25423323777251       -0.05104266903939        0.01913733458978
C            3.62098024966163        0.03348913187767       -0.21393833382861
C            4.05376983546287       -1.14013717833909       -0.87133837573233
C            2.99636277115682       -2.00227200704186       -1.02751336920513
C            1.85048757921395       -1.42347511829942       -0.40989263600881
N            0.82048647150723       -2.13213002618589       -0.10596105182860
C           -0.36955946273435       -2.00944395222915        0.42724692551973
N           -0.78912418008376       -3.08090065507637        1.13830790578330
C           -1.31147823501865       -0.96895994910305        0.15430550697568
C           -2.65127457811863       -1.42017895497329        0.18543366987910
N           -3.70360119325766       -1.87154464559419        0.27263601643812
C           -1.09244826730148        0.39005960738561       -0.08349422719591
H           -2.09853227842119        3.53483838270259       -0.27826009174261
H            4.24143147052954        0.87766255819135        0.02254971520646
H            5.06312693983059       -1.31837717942880       -1.19456474430466
H            3.01155887421246       -2.98104322548574       -1.46529101522792
H           -0.19393951624632       -3.89111632676932        1.17524419187782
H           -1.75785713592384       -3.17615871455398        1.39425792574037
