25
 energy: -49.062994243629 gnorm: 0.000945628900 xtb: 6.6.1 (8d0f1dd)
N            5.08654547953844       -2.03225300984407        0.04222447933654
C            4.37932964049683       -1.12746813271013        0.03781697963325
C            3.50387742977256       -0.03546976707116        0.04201879998125
C            3.88277359219671        1.31309567216206        0.13887654421281
C            2.74695598214942        2.09939560506261        0.07507966783258
C            1.60764803539164        1.28032352881591       -0.08283765336358
N            0.44080866017126        1.83448297395793       -0.22193340337250
C           -0.80085818804306        1.48962895146095       -0.22559153845477
N           -1.70788819694881        2.48943025528140       -0.39539166056798
C           -2.89912149357441        2.00660525173594       -0.16730389536909
C           -2.87494476109584        0.60822313919133        0.10760976483160
C           -4.00985190697752       -0.12291069833347        0.47367379625237
N           -4.97784000753698       -0.64183763243138        0.80817631705538
C           -1.53086237607821        0.21074672383099        0.02810280392366
C           -1.11196638422462       -1.13067641152609       -0.05476981923499
C           -2.17322330945053       -2.07166122091587       -0.22070531454740
N           -2.96961786004674       -2.87640091558129       -0.39413526998915
C            0.12401473023333       -1.76929371279776       -0.06917657526242
C            1.45318003710036       -1.35195428817285       -0.01224308168438
C            2.08844625839999       -0.12858512901147       -0.06290367904937
H            4.89544097751339        1.65996025366998        0.23553817619117
H            2.70258230024928        3.17018736844555        0.12622709287947
H           -3.77465915883528        2.62947148160382       -0.19458327848146
H            0.02652754886767       -2.84973216537208       -0.12029984805881
H            2.14836941132531       -2.18225536644766        0.08427883300611
