25
 energy: -53.050709062537 gnorm: 0.000848633558 xtb: 6.6.1 (8d0f1dd)
N            4.74783692077237       -1.77375319302656        0.76365795597281
C            3.94181451565333       -1.00617393396385        0.48507558371254
C            2.98493527337432       -0.03926329945534        0.16331780720764
C            3.21822155358511        1.31879747140656       -0.10675189131647
N            2.10534081670389        1.98183825018240       -0.38239729604445
C            1.06568551406625        1.13694967385779       -0.28211745861873
C           -0.19203105722190        1.71530907995120       -0.16292090698780
C           -0.07845414647717        3.13844333377627       -0.22364401366644
N           -0.04530939170071        4.28304373763399       -0.28040019092112
C           -1.52459141480070        1.25116891486918        0.07593480513763
N           -2.44476892491422        2.22731839516079        0.22647463420303
C           -2.03299478276234       -0.07181682873526        0.15698030980290
C           -3.45272297816774       -0.15119887454554        0.26931781004774
N           -4.59427424325927       -0.16832966161437        0.37574926253397
C           -1.49090937112227       -1.35555875164406        0.07236279954972
N           -2.32339997121327       -2.39642340419717        0.05906193147698
C           -1.58105735759515       -3.45304693549623       -0.29625452325155
N           -0.29556787776085       -3.22544096063348       -0.49029130577943
C           -0.11727794643521       -1.92175345093763       -0.21213592732989
N            1.06119739586952       -1.41851663609941       -0.11983310683377
C            1.59710345069451       -0.24981057496136       -0.04760529953831
H            4.17072607386000        1.81667367554661       -0.12413030981222
H           -2.18494978682041        3.19720341318143        0.14255094571476
H           -3.41166753541775        1.99401124122673        0.38932156639845
H           -2.01365713190598       -4.42947302827921       -0.41028602675452
