28
 energy: -46.650202570837 gnorm: 0.000438072981 xtb: 6.6.1 (8d0f1dd)
N           -4.24059193792013        1.72124974310356       -0.06703507160601
C           -3.41313981531258        0.91983385333223       -0.04107126064239
C           -2.43341936764283       -0.06714922129251       -0.01573775390915
C           -2.69331782898682       -1.45204178343896       -0.00041152482434
N           -3.91723770410704       -2.02612486124285        0.04564837279078
C           -1.45658416467345       -2.11206520295590        0.01486580963125
C           -0.41115648184075       -1.18442069435409        0.00783244796046
C            0.90950225016833       -1.62325059145144        0.01653096736018
C            2.14331051255484       -1.01255889300877        0.00560391240917
N            3.21429487846539       -1.84256074703934        0.01335604621482
C            4.30626606911662       -1.08605230315287       -0.00463087699229
C            4.01097741932190        0.27213700230787       -0.02258944549507
C            2.61039764677890        0.38813287673641       -0.01656926582044
C            1.99480533147378        1.63062187015777       -0.02168068123562
C            0.68498385049125        2.10755476482210       -0.01998800705838
N            0.57834139165970        3.48243160850567       -0.07930682066012
C           -0.55791351338193        1.44844192121961       -0.02016637736931
C           -1.02192189602686        0.15300012353156       -0.01164409248996
H           -4.00113055023681       -3.01561425941346       -0.10451862041121
H           -4.72933026343636       -1.45299233473656       -0.10618226827206
H           -1.33021644608990       -3.17903024588881        0.02957026820442
H            1.00827965674212       -2.70453035553308        0.03199228306243
H            5.28108036284807       -1.54191522609752       -0.00394517541357
H            4.71520877770752        1.08235439483564       -0.03912050513044
H            2.72539801338580        2.43720116494354       -0.03269646292332
H            1.39060682663961        4.03991914134688        0.11859488670391
H           -0.31122251794575        3.90785363651534        0.11507723292775
H           -1.38195820395263        2.16057001624676       -0.03220661281258
