22
 energy: -45.092077234873 gnorm: 0.000732461935 xtb: 6.6.1 (8d0f1dd)
N           -4.65182992938615        1.10682938780690        1.12337399446615
C           -3.72819612578400        0.52415531224161        0.77068692280181
C           -2.60260027957626       -0.19426199658973        0.36024959594400
C           -2.47311392011474       -1.58373324902533        0.24708849139909
N           -1.27160739881849       -1.96201680112771       -0.18576260099729
C           -0.52801330661569       -0.86777188028780       -0.36711345398543
C            0.85934130066981       -0.98788492385501       -0.46367259576478
C            1.33078975873924       -2.33002410042665       -0.55564305997137
N            1.70847888730167       -3.40273541518667       -0.67719768302147
C            1.86351601821224       -0.03727224190824       -0.23152847337109
N            3.08722955713734       -0.44258877161319        0.06918218549825
C            3.75458441667536        0.60340728081602        0.60033249092260
C            2.99284576766020        1.75092784834814        0.67870936333394
C            1.76461258885283        1.45001537233083        0.04428539782124
N            0.94167928888591        2.33490677215161       -0.40906199082528
C           -0.24533163944364        2.29601782919736       -0.94801519714112
N           -1.24792820429431        1.56508814064340       -0.55408747918885
C           -1.38588731444069        0.34928788218450       -0.13971148133146
H           -3.22513562630237       -2.31938495150562        0.46840498074668
H            4.77519378183428        0.46981982348721        0.91031750127658
H            3.28881090530255        2.71503552243236        1.03822513463757
H           -0.48810697959606        3.10747417688644       -1.62650986194914
