30
 energy: -55.692942093499 gnorm: 0.000643922410 xtb: 6.6.1 (8d0f1dd)
N           -3.80011443774249       -3.26721173870791        0.00184176659384
C           -2.96134800174689       -2.48472228298484        0.00078236080038
C           -1.88800747971159       -1.55236346646758        0.00183321127062
C           -0.64910289478129       -2.22881917484162        0.01438823066374
N            0.60857944646653       -1.90241277907263        0.01118053743255
C            1.30603528399016       -0.79233263896151        0.00408402839704
C            2.71925526710802       -0.90354764107818       -0.00103196342027
C            3.46342518448672       -2.08501618514159       -0.00337005950886
N            4.14276815309581       -3.01221160282049       -0.00724566974586
C            3.30023346863056        0.38381050356382       -0.00061949811214
N            4.61284903145877        0.66047712599086       -0.00323626675940
C            2.24566616392019        1.32604861219393        0.00378628609165
C            2.43215201487090        2.70718413766555        0.00472892428119
N            2.60989141195324        3.84438831416988        0.01008041057111
C            0.99563839622525        0.65353446548336        0.00538679926998
C           -0.18076946235713        1.38016785769431        0.00303895126758
C           -1.53362469492539        1.06565928416852       -0.00182762054270
C           -2.48349675303175        2.08533675396797       -0.00449905335712
C           -3.77848273058137        1.53077454974597       -0.01002874940982
N           -4.93465998117560        2.21823410448609       -0.03069471140594
C           -3.64667134939599        0.13371182725212       -0.01282280627766
C           -2.29386951844843       -0.21198571425532       -0.00611957768434
H           -0.76499905032674       -3.31388491620478        0.02650826167628
H            4.93139859877446        1.61368875922938       -0.00184850066198
H            5.28272456394806       -0.08898633339630       -0.00642239705246
H           -0.00844292365496        2.45444892963703        0.00249622981712
H           -2.25942406851594        3.13610926317118       -0.00240301484503
H           -5.81085682932675        1.73092524638811        0.02576248336581
H           -4.93055538372647        3.22001543509188        0.03632157561564
H           -4.46427467817996       -0.56266369026704       -0.01750980063092
