26
 energy: -48.006908847790 gnorm: 0.000816906610 xtb: 6.6.1 (8d0f1dd)
N            5.30063261486979        1.11164908116488        0.02154119471272
C            4.31346845813142        0.52309706810398        0.01350120868886
C            3.11208124246349       -0.18613270070992        0.00661838980136
C            2.96904582610449       -1.59288317829171        0.00123683696738
N            1.70875869340495       -1.95599381074480       -0.00488243409749
C            0.94199199899143       -0.82856351121506       -0.00375668965045
C           -0.42595273570405       -1.04710418727222       -0.00862837696982
C           -0.74620327220333       -2.43826192518763       -0.01354428333422
N           -1.05904610112158       -3.54032267975302       -0.01812073252852
C           -1.55731183244711       -0.20567148465889       -0.00774124623291
C           -2.85131948285401       -0.70508888505735       -0.01009217814637
C           -3.72107325564220        0.41407949619212       -0.00580573190507
N           -5.06017953301144        0.39143107030126       -0.02182943653537
N           -3.03745285354820        1.56244176561870       -0.00204352656140
C           -1.72220345074198        1.26693092196696       -0.00310477119084
C           -0.87312586344119        2.35956910670558        0.00114590850420
C            0.50373239670511        2.56399928154500        0.00518479947324
C            1.60897366388910        1.73893626620587        0.00664077008603
C            1.80841462565376        0.35745227915041        0.00354358265006
H            3.75977640321742       -2.32084666361288        0.00164587426235
H           -3.14868501035502       -1.73521851723593       -0.01410382404733
H           -5.55867944020556        1.26208961293306        0.02892288801131
H           -5.55960043232721       -0.47677882918329        0.04228858704213
H           -1.45311244567260        3.27660867603566        0.00194115335968
H            0.76607771995762        3.61631748424221        0.00820799186573
H            2.55254404288694        2.27863296135704        0.01112705257476
