27
 energy: -56.526239806036 gnorm: 0.000950829751 xtb: 6.6.1 (8d0f1dd)
N            4.91092281494528        1.18828367273995       -1.47309225680805
C            4.10261394368666        0.49812565353353       -1.03765821265719
C            3.11725940916490       -0.33890889739843       -0.51219121869285
C            3.23060345500867       -1.70171435502320       -0.19214268044352
N            2.12311269225276       -2.21241847255089        0.33130024448400
C            1.19396561634993       -1.24458331372837        0.34639929655211
C           -0.14117387690409       -1.56891836917582        0.50048647400600
C           -0.40022367431378       -2.93338279175906        0.81737077391936
N           -0.62006675518633       -4.01823815519859        1.10879693680194
C           -1.31183977701100       -0.83994303027315        0.18942412794849
N           -2.44284957637080       -1.51211745232861        0.07792648770692
C           -3.36918618789030       -0.60939655400353       -0.35251616704846
N           -4.62377899456495       -0.96718460270720       -0.58759755361775
N           -2.91091522630196        0.63250440174024       -0.50763276762152
C           -1.61575194800163        0.58635905175763       -0.15702138373398
C           -0.92407797168853        1.77734715728447       -0.00974825028455
C           -1.68187379527584        2.94644564923314       -0.25021724170559
N           -2.25223380680129        3.92952112990732       -0.41003290589021
C            0.43352026408084        2.00552305926632        0.40744469578502
N            0.70153574484737        3.16284429979715        1.04521664014323
N            1.46384236919581        1.27796176316647        0.09495402668908
C            1.82564685740732        0.05127648663667       -0.07821970282693
H            4.10155691494062       -2.31830775350142       -0.32493395258666
H           -4.89611997623479       -1.92200444607000       -0.43181740248657
H           -5.28043887083314       -0.28116319297231       -0.91597375349313
H           -0.00918713528679        3.86967329838117        1.13652547592561
H            1.66484739518580        3.41037217894646        1.20256489663499
