28
 energy: -57.020924562423 gnorm: 0.000879135356 xtb: 6.6.1 (8d0f1dd)
N           -4.68372144588352        2.65163384738894       -0.77866054959868
C           -4.11658504465718        1.67609808080821       -0.56212646429258
C           -3.38301059897035        0.52110844514157       -0.28754895735887
C           -3.86375665615515       -0.76685201020591       -0.06354013524597
N           -2.87907535063657       -1.62482875258118        0.20073449189159
C           -1.71613435272324       -0.96492306791986        0.15146154722769
C           -0.54628551487995       -1.72699103358760        0.23603297488114
C           -0.78262543014646       -3.11586601455575        0.46811957747459
N           -0.97324691572816       -4.22166921750429        0.69017192573622
C            0.78962661559273       -1.41892976722691       -0.00044336442626
N            1.61621554272642       -2.47104116707368       -0.16794353607482
C            2.82088172762884       -2.01623357562214       -0.44414906507842
C            2.87634165150559       -0.60852345283752       -0.38055948476117
C            4.01544067852195        0.13823737488630       -0.70180326336751
N            4.96770334411588        0.68769690879202       -1.03181554492117
C            1.56233973956644       -0.16325957271854       -0.09738449710079
C            1.28677712094253        1.17669517774864        0.22323351873526
C            2.44808052652961        1.90344062671543        0.60940528572307
N            3.32761881233814        2.51391143712848        1.02226058492900
C            0.11468249665612        1.97055525968633        0.21631483335219
N            0.27747285281177        3.29284659337215        0.47615064587421
C           -1.21650905631050        1.61603503989987       -0.09898091315778
C           -1.95754798090878        0.46253445825980       -0.11906937841674
H           -4.88593504189765       -1.09655344080033       -0.08695752186123
H            3.62823112049525       -2.68237772243249       -0.68529918260873
H           -0.51437491281709        3.91111508730011        0.48402373954390
H            1.18535469206685        3.67716209958595        0.67751761023869
H           -1.83111852248479        2.49733901925363       -0.27687154033837
