25
 energy: -49.058401991278 gnorm: 0.000818315994 xtb: 6.6.1 (8d0f1dd)
N            4.77652804672648        2.15980115653255        0.75795666110654
C            4.14143764398056        1.23521798294848        0.51300024458216
C            3.37664935941814        0.09980003338222        0.22412861870456
C            3.83798936775731       -1.22067396083023        0.19791851093177
C            2.79105168786326       -2.06847607183667       -0.14529925821321
C            1.61565941202212       -1.32010934784668       -0.32676215964905
N            0.45808978238500       -1.91717309347057       -0.43212138056264
C           -0.77848106664421       -1.55492406111461       -0.29870813486572
C           -1.79033307200635       -2.55216109981675       -0.29041234767222
C           -2.97795686735659       -2.00607467878687        0.13188787308588
C           -2.79556950276436       -0.62066740330097        0.35673757071456
C           -3.78889672699287        0.20155532243669        0.90363031564512
N           -4.62734048526350        0.80770549759164        1.40155728234480
C           -1.47146157924542       -0.26074936496862        0.01850586231449
C           -1.09688603314829        1.04724974255337       -0.28640792125237
C           -2.13804476363638        2.01010924135973       -0.37778582757287
N           -2.92778323482603        2.82628624508377       -0.53054422147077
C            0.16038064764185        1.61638485118217       -0.60996508570847
N            1.36564845995626        1.22695407341904       -0.34989717617439
C            1.99836595792387        0.11710166256738       -0.14936398684571
H            4.84951226449937       -1.51862724642951        0.40642143487826
H            2.84441591894216       -3.13635237963009       -0.24024846446959
H           -1.60271738396634       -3.58087679402437       -0.53035276475478
H           -3.90537106169495       -2.52587454909530        0.28828191654389
H            0.11750463930383        2.62981159799220       -1.00265766831836
