26
 energy: -43.197626870395 gnorm: 0.000599755617 xtb: 6.6.1 (8d0f1dd)
N            3.79428999351539        1.66849189907286        0.26834069837812
C            2.73396937834991        1.24360529483495        0.14052088245927
C            1.40565126239229        0.75357177928589        0.02018262610688
C            0.43913372691321        1.77055542071904       -0.02837787160291
N            0.92042212902750        3.05944057255289       -0.05569729194024
C           -0.97335739651151        1.71794169265573       -0.11465225416109
C           -1.97051486098846        0.78264393149444       -0.06297917106292
C           -3.33054356226808        1.22104136811769       -0.11240561025950
C           -4.16757118945070        0.14140837776669        0.00745466331284
C           -3.38362063920118       -1.01969452616712        0.12133696554287
C           -2.03175244736611       -0.68450304419716        0.07406694881312
C           -1.05206667708470       -1.67017743063140        0.09828644340148
C            0.32070557639647       -1.67921506643108        0.01271547682332
N            0.88881623250829       -2.91542938735928       -0.01774472410223
C            2.19608073264472       -2.75443490074347       -0.10448789742441
C            2.56315646115581       -1.40510958915167       -0.10800120249190
C            1.38065175606679       -0.66003419817596       -0.04012374122754
H            0.28961208129810        3.82362520500536        0.10633524476314
H            1.89738511301477        3.22901769511272        0.11199000579113
H           -1.38153689581313        2.72211454162238       -0.21818309994735
H           -3.62865985164849        2.24862198092180       -0.21516487161404
H           -5.24208213913166        0.16869970048584        0.01187985065677
H           -3.76298695083927       -2.02012061027944        0.22096841569226
H           -1.44729196260299       -2.67921262007966        0.16509756566550
H            2.85174861216615       -3.60495850883347       -0.16122342323125
H            3.56370434295673       -1.02246041349876       -0.16463937664117
