27
 energy: -51.719515487312 gnorm: 0.000728170753 xtb: 6.6.1 (8d0f1dd)
N           -5.05221204080855       -0.49610838435584       -1.16738322816390
C           -4.07799393741371        0.00806645872784       -0.82430073172526
C           -2.89494077089405        0.61719289039040       -0.40956429939708
C           -2.67169203701047        1.97747330510962       -0.16254349939543
N           -1.43743464007555        2.23382068402857        0.25762816891806
C           -0.75748875510329        1.07533542912784        0.27437267404506
C            0.62460726756452        1.10909038888561        0.40681703314847
C            1.15517834378183        2.40632673802605        0.66805492986006
N            1.58107360954944        3.44124341364345        0.90968401830621
C            1.61976566453856        0.14554639710741        0.15919397011366
N            2.86617914337390        0.58967617487594        0.10338743234494
C            3.67018807735951       -0.44660381755168       -0.25568300108319
N            4.98864320098576       -0.24514863175346       -0.38012060134153
C            2.93958880513214       -1.62196222676519       -0.42284660070920
C            1.59663576852344       -1.31858815450969       -0.13645517058685
C            0.64005947315023       -2.29896019132688        0.00013934058127
C           -0.73573286842275       -2.25889864489215        0.33616860671788
N           -1.27240435895786       -3.39770712660727        0.84951879416395
N           -1.62319353171764       -1.33095774254367        0.08639202684144
C           -1.68493890622733       -0.04615392853961       -0.06014648617281
H           -3.38415323904401        2.77525612577571       -0.27357504732743
H            5.59472790298626       -0.96436135395548       -0.72921079542253
H            5.33495672912379        0.69040020638005       -0.25816987125204
H            3.32857295594991       -2.58570305570080       -0.68578120317226
H            1.01875927643539       -3.30595142792731       -0.14560658295403
H           -2.27353175424613       -3.44707996934143        0.93378635252396
H           -0.73761387623141       -4.24582843670928        0.89720637753698
