24
 energy: -39.760599100210 gnorm: 0.000203760747 xtb: 6.6.1 (8d0f1dd)
N           -3.25622439691804        2.74335722727856        0.00133219904430
C           -2.87723451533857        1.65782300394279        0.00143306502023
C           -2.40403303209016        0.34326781552151        0.00141936893482
C           -3.20531518447151       -0.81004356231780        0.00192369885130
C           -2.37760987367205       -1.91397188574407        0.00183694647748
C           -1.02255078453640       -1.50474444409928        0.00125328144767
N           -0.10786126709343       -2.44646222304087        0.00105292573484
C            1.19249323985000       -2.48863426997750        0.00055136687291
C            2.24064999377794       -1.55200555118342        0.00006115950758
C            2.33018635862828       -0.17588197176373       -0.00015824776016
C            3.60015516670915        0.45424736411952       -0.00068063803036
C            3.44101596720269        1.82612863699045       -0.00085386800543
C            2.07393302347767        2.11169094766759       -0.00045940811371
C            1.33939669089339        0.91765209660470        0.00000054306805
C           -0.04795683630768        0.94631858691245        0.00045467652620
C           -1.02965448355116       -0.02692515548097        0.00095748996924
H           -4.28022556545594       -0.81194298903705        0.00229762994247
H           -2.68277985490556       -2.94288201232125        0.00213379424353
H            1.54321088372631       -3.52110953558108        0.00054300178602
H            3.21488432785248       -2.03279649719639       -0.00019402499795
H            4.53642973801828       -0.07377453406030       -0.00092452478181
H            4.23144947815998        2.55427294022605       -0.00123146447705
H            1.63890882537909        3.09469243625353       -0.00050673970276
H           -0.44818658543480        1.95835361648653        0.00040234974259
