27
 energy: -53.308782887579 gnorm: 0.000694893791 xtb: 6.6.1 (8d0f1dd)
N           -5.43629725697429       -1.83887210765389        0.01276974233636
C           -4.63739060555871       -1.01429416154956       -0.01083570045133
C           -3.65253640571435       -0.01967594610531       -0.04114431530406
C           -3.89603521080882        1.36413186999618       -0.11668115206884
C           -2.68424978671221        2.02485391046795       -0.10212790997720
C           -1.62962261227395        1.08425073337248       -0.00627407591396
N           -0.40723891354153        1.52561541991780        0.05042885871559
C            0.79019954431887        1.02652325027424        0.05685598835527
C            1.88675620647844        1.95123417432278        0.11810892279539
C            1.73842183881602        3.33823379485543        0.25354108613829
N            1.62656289444058        4.47439375428259        0.36466821160244
C            3.08011822988536        1.26022984915607       -0.01033149558887
C            2.79056606366671       -0.11319004944356       -0.11691313696487
C            3.81329939903212       -1.04609926695709       -0.35128871727723
N            4.71974934174046       -1.71160869430862       -0.58004744687520
C            1.39120996886362       -0.32268686697907       -0.04211182547428
C            0.82445040468886       -1.60209683087413        0.05745833360744
C            1.74923921349380       -2.67791642687025        0.22652232612139
N            2.39477913484492       -3.60598667929059        0.40939312577144
C           -0.48107033204022       -2.10335954563318        0.07221132360818
C           -1.75412888534710       -1.54994286531260        0.01588863350474
C           -2.25371348929204       -0.25963296530758        0.01347507883653
H           -4.87102396630201        1.81280634000792       -0.16957562079525
H           -2.52614731781178        3.08527100311756       -0.15132849535552
H            4.06575074851882        1.68725492721955       -0.03652393642830
H           -0.49864543740378       -3.18727831530484        0.13320915346969
H           -2.53789228940360       -2.30197267110369       -0.02567529378719
