24
 energy: -43.765696130893 gnorm: 0.000878403556 xtb: 6.6.1 (8d0f1dd)
N           -2.83524047055193        3.02593645445297       -0.00795426936795
C           -1.96579271248537        2.27985456849743       -0.00577052057471
C           -0.83128611877907        1.41447987692305       -0.00352159110227
C            0.37896127551648        2.12672038215499       -0.00173197720169
C            1.70756187127712        1.77868321545866        0.00098682608439
C            2.40584485815845        0.56831097925335        0.00140124807747
N            3.74330276645193        0.62728208104606        0.00344407859347
C            4.15504294700466       -0.64701199560747        0.00182603577835
N            3.20540691015272       -1.56099850140748       -0.00041175931048
C            2.03869086177047       -0.86258250335924       -0.00097365695958
C            0.86531946209134       -1.57864097802166       -0.00165771995675
C           -0.48261026459683       -1.22502717696226       -0.00080087479733
C           -1.49085098171575       -2.18183772402683        0.00166816467743
C           -2.72225318470234       -1.48564224321890        0.00119702451729
N           -3.95620942952669       -2.00222447818883       -0.00351333466846
N           -2.52968876926435       -0.15949105798358       -0.00191841495747
C           -1.20795760582854        0.07019715712500       -0.00238706706590
H            0.21332973073815        3.20048206484153       -0.00241379710610
H            2.39781316738698        2.61564507780992        0.00279529943740
H            5.19887644195264       -0.90267769177309        0.00329268588362
H            1.04124136472358       -2.65024587113796       -0.00180966668582
H           -1.36418690024267       -3.24675814990496        0.00367137708595
H           -4.10781477893863       -2.99361858674159        0.02936675742565
H           -4.73738395789232       -1.37025945092914        0.01479011089350
