22
 energy: -44.323658592258 gnorm: 0.000696652056 xtb: 6.6.1 (8d0f1dd)
N            4.99338965057816        1.04712873358388        0.69887960021459
C            4.05943472562150        0.41993072439811        0.46813817806693
C            2.92895444537914       -0.36050221345079        0.20575371615164
C            2.85350750487531       -1.74638870362225        0.23339757452855
C            1.55390852777388       -2.16065824505016       -0.09438181158484
C            0.76566173562305       -1.06055576086541       -0.39521432106601
N           -0.51585837850903       -1.17516274670278       -0.64838279598027
C           -1.59933777237484       -0.53436920316691       -0.53578771795171
N           -2.84487791472974       -0.98148856095345       -0.63809205947749
C           -3.56934184651734       -0.18182741834049        0.16439439274413
N           -4.85840411264117       -0.40018132046753        0.38987400355337
N           -2.92480638714062        0.86449010827079        0.74621635332106
C           -1.72954802933772        0.86566296325226        0.20216574055281
N           -0.93368768491251        1.82565881415813       -0.03603259055855
C            0.26583459935591        2.05354429331039       -0.48128957256946
N            1.38845669708530        1.41572588536314       -0.24296375804579
C            1.65549483090865        0.16013005850116       -0.18386778927454
H            3.67170913893269       -2.40244893940386        0.47074617942670
H            1.21264084017996       -3.17752706110295       -0.13090395057573
H           -5.31910551873597       -1.15667459747665       -0.08361628952064
H           -5.35159245368663        0.19471233283243        1.03155103617733
H            0.38667866087345        3.00954358893012       -0.98472974663074
