28
 energy: -56.248272870789 gnorm: 0.000463622608 xtb: 6.6.1 (8d0f1dd)
N            3.67640361645146       -3.72510937067553       -0.14363633668382
C            3.33048433190356       -2.63082515130199       -0.09365643926997
C            2.90982114476722       -1.30144170707961       -0.03556944110351
C            3.73243429826427       -0.16337945892808        0.03585405066778
N            3.03040884401521        0.95236463951471        0.08186955234534
C            1.71286587282315        0.63339233850112        0.03790288513339
C            0.87286883782969        1.74021717055834        0.04284334638439
C            1.66262752931549        2.92967497569845        0.11857657708113
N            2.22112497522901        3.92933459341277        0.18905972070953
C           -0.53121362453433        1.98794844680893       -0.02636117062839
N           -0.87685132909398        3.29596044109242       -0.09218853456216
C           -1.60938635462509        1.07635910124011       -0.02119888778410
C           -2.89739457889686        1.68617501132020       -0.04942673723687
N           -3.91062794118868        2.22434390562282       -0.07749149789144
C           -1.75851842283583       -0.31736773806733        0.01692184949579
N           -3.01598200388292       -0.76874610610189        0.05162247872033
C           -2.92049727360666       -2.11071058586477        0.05556570278693
N           -3.98640609354851       -2.90304842214145        0.09277506574275
N           -1.66099672040809       -2.58526993488043        0.01646501380783
C           -0.87176180232851       -1.50713022487948       -0.00360663200324
C            0.50031413189017       -1.70400106171119       -0.04447605373435
C            1.57023800436107       -0.83714072739832       -0.02758411451051
H            4.80676443287009       -0.14093507160819        0.05385929881718
H           -0.17150711130537        4.01356831218381       -0.07628727804469
H           -1.84713429353102        3.56257636802060       -0.11640851941704
H           -3.86041278874631       -3.89934561045367        0.09382127049138
H           -4.90197455027272       -2.49110484360269        0.12008396869373
H            0.76347379698503       -2.75702100377937       -0.07623455170720
