27
 energy: -52.497114146581 gnorm: 0.000876633783 xtb: 6.6.1 (8d0f1dd)
N            4.54376276149945       -0.61207471031156        1.17991323403065
C            3.69619654541688       -0.00333512031660        0.70004057299098
C            2.68663301071843        0.82217468602771        0.19002704477589
C            2.89039583208637        2.20618358954350       -0.07045570362119
C            1.70127221866542        2.76948875875857       -0.43616813374299
C            0.65975158179232        1.80105978190957       -0.31260140501158
N           -0.56248899153360        2.19265441502884       -0.36581777294459
C           -1.73401727438287        1.65102462169779       -0.14086407631699
C           -2.87151852594470        2.44320155743443        0.05809847969136
C           -3.93353814019414        1.56453997025552        0.29015638921939
N           -3.55643526752987        0.29472333001149        0.26297978832889
C           -2.22369388509435        0.25759391194979        0.03061420510347
C           -1.63587689953131       -0.99816311267162        0.04911898301024
C           -2.59315078663539       -2.00367468902137        0.37825013790566
N           -3.31371657756359       -2.85361943839378        0.64989973175438
C           -0.33123642388982       -1.50628497931034       -0.22457166816485
N           -0.28824254004707       -2.84020064571381       -0.47317094863124
C            0.91608959676948       -0.83269700208570       -0.21360537102155
C            2.00530317101397       -1.69766046835316       -0.52110866174380
N            2.83645495214657       -2.41338720129556       -0.85904660554524
C            1.33396378926841        0.49377812743056       -0.01099609932655
H            3.83960806911215        2.70083578773763        0.02319304800188
H            1.51568027090680        3.79585409601661       -0.68588696523159
H           -2.90074689354392        3.51337789596151        0.02903803894366
H           -4.96613690472581        1.81524021759946        0.45247752528579
H            0.59221514726388       -3.31851507232985       -0.56641199372047
H           -1.13290784614146       -3.38600736546392       -0.43853309790653
