27
 energy: -53.306138019029 gnorm: 0.000847191064 xtb: 6.6.1 (8d0f1dd)
N            5.56737337758677        0.37137090288052        0.29611263689394
C            4.52777653382836       -0.10641030976372        0.19649486086312
C            3.25587228504815       -0.67083008742937        0.07519870947692
C            2.94794419657186       -2.04006075737210       -0.05389371244711
N            1.64969883228584       -2.23319873191945       -0.15458597218697
C            1.02651309373080       -1.03105247599513       -0.08927472850505
C           -0.37185859321919       -1.09572790161718       -0.10850314647015
C           -0.78982670825738       -2.44982690055810       -0.30799971772617
N           -1.10371203805581       -3.52635508790917       -0.53706287469168
C           -1.39134794255858       -0.14837602752058        0.01340588479797
C           -2.75122040848008       -0.53268951234884        0.12664036623179
C           -3.32532821433268       -1.80180672629447        0.29624823438888
N           -3.92820812879735       -2.75918002519472        0.48896324937204
C           -3.56552582557365        0.61888826207932        0.14333134024908
C           -2.75698341081111        1.72455797751747        0.02975165809068
C           -1.39514841695126        1.32779126227926       -0.02211669552864
C           -0.40858163824440        2.31165443411899       -0.08357319428543
C           -0.92226951752286        3.64225634751974       -0.19469428190383
N           -1.26568056155644        4.72976248350117       -0.29918836712600
C            0.99487447109651        2.36276033776341       -0.01228819348873
C            1.99353626367800        1.42166712886719        0.07801436688155
C            2.02237034313653        0.02847428444640        0.04342214906827
H            3.63755203719798       -2.86319701580207       -0.07341905294613
H           -4.63553593370995        0.60956987026029        0.23261570239581
H           -3.09690687536590        2.74302068161240        0.00870491367320
H            1.36634959455421        3.38302944205607       -0.01856074760281
H            2.98799658642017        1.85117706991524        0.16342303542707
