27
 energy: -56.531666645678 gnorm: 0.000628361095 xtb: 6.6.1 (8d0f1dd)
N           -5.27196888730665       -0.05682272994303       -1.63350410589675
C           -4.29101525345360        0.32455814162129       -1.17435463424852
C           -3.09794722305268        0.79471861932079       -0.62456882352292
C           -2.75822107349299        2.12432907903915       -0.33446823879552
N           -1.55944228317430        2.25402555300015        0.22516235952510
C           -1.01316402815910        1.03149266407799        0.31197662693468
C            0.35486396403659        0.91772346237063        0.53268927329814
C            0.97143209039311        2.13904681987717        0.92476388516492
N            1.46700393260676        3.09559221155569        1.31285567368980
C            1.23505476514769       -0.13599447115671        0.20990911720445
C            2.58953553399392        0.01286267857860       -0.05786426924662
C            3.47011820518985        1.08416159587966        0.08156438300668
N            4.30655533342312        1.87090633757834        0.13916400120958
C            3.01944386257090       -1.23550173537424       -0.66934621452989
N            4.24596011954052       -1.46923971945340       -1.12082243447075
N            2.04108450232005       -2.12341395491549       -0.73315469769262
C            0.95764523637680       -1.57406236756771       -0.15707911100122
N           -0.02808598159321       -2.32934388853145        0.17944649548740
C           -1.24338395426971       -2.11214384632043        0.64943022943442
N           -1.70940742867322       -2.99312997805145        1.55194283185154
N           -2.11325681073065       -1.25456245984576        0.14846301254029
C           -2.03269760128917        0.00839506080876       -0.11645900629543
H           -3.36310122459332        2.99325570902125       -0.52269524134522
H            4.96660084960778       -0.77310239046985       -1.02463100351710
H            4.44477735295765       -2.35290785441026       -1.55831971382352
H           -1.15171758668315       -3.80082754621701        1.77063363219259
H           -2.69413207109261       -3.00008471507835        1.75701583435030
