24
 energy: -44.546436324435 gnorm: 0.000388665569 xtb: 6.6.1 (8d0f1dd)
N            4.33286924137802       -1.55756901261404       -0.00204627963259
C            3.22956480180189       -1.25196784774171       -0.00192208741955
C            1.82658196697135       -0.97786325116645       -0.00149565120115
C            1.05505036797223       -2.13915840069078       -0.00156323982436
C           -0.30547467291446       -2.38587990630779       -0.00115496898949
C           -1.46041629668357       -1.61504823973929       -0.00047871893904
N           -2.60784258275422       -2.31930354822368       -0.00011175787222
C           -3.62417287894082       -1.46085639894854        0.00052536108901
C           -3.19208015311914       -0.13934280624497        0.00058783698218
C           -1.78392060200262       -0.17170690792994       -0.00001704553730
C           -1.01381672030339        0.99428472365299       -0.00015030608760
C           -1.80323804841752        2.18488079487717        0.00038520615550
N           -2.43805816023504        3.13882701588617        0.00054478767264
C            0.35919778895786        1.24976279349768       -0.00062345712592
C            0.87745171329741        2.56192366671653       -0.00060924047565
C            2.26130177685094        2.45104475429383       -0.00099776985009
N            2.65778589132298        1.17894550468287       -0.00128989616470
C            1.56634684589181        0.39771387047319       -0.00114097707860
H            1.66015788254545       -3.04029946048025       -0.00197361908713
H           -0.56657456734497       -3.43930267402658       -0.00131758119755
H           -4.63773917981911       -1.81818087627928        0.00091170506350
H           -3.81118851376819        0.73637885155162        0.00102053348826
H            0.30856738702627        3.47090489863190       -0.00032750032257
H            2.98636226048685        3.24364108942934       -0.00107773354559
