28
 energy: -52.235605446921 gnorm: 0.000858403365 xtb: 6.6.1 (8d0f1dd)
N           -5.35085398271380        0.66958372118058        0.23472996239570
C           -4.23216530067183        0.92667321721874        0.16700413557125
C           -2.86724657393746        1.19675613627430        0.08151267682826
C           -2.24966854183310        2.45742195941509        0.00897011013034
N           -0.93882956264247        2.35239713528815       -0.07615344412996
C           -0.60924932660625        1.03733866939853       -0.05316438198798
C            0.76182985577363        0.77316557239428       -0.08259626637963
C            1.49067072073426        1.99414272713769       -0.23529140527447
N            2.05351037560750        2.97415503201716       -0.41803404594951
C            1.52422729289920       -0.39620149969532       -0.00266164075932
C            2.93422931152389       -0.37053840248290        0.07934408403106
C            3.82230883456837        0.70569296775155        0.20928462685926
N            4.66679432828743        1.46996603875023        0.35761555400167
C            3.42928065166731       -1.69748865448382        0.08912651563378
C            2.36828556843593       -2.55645060071603        0.00698341762472
C            1.14498057427978       -1.82422258009135       -0.03065352872787
C           -0.02241015760340       -2.54718536972347       -0.08544448648940
C           -1.41328111733818       -2.30886444043456       -0.06145926905937
N           -2.17575418697461       -3.44338877025074       -0.09231932993345
C           -2.13848192478733       -1.12171087158552        0.02438897292126
C           -1.82690524116979        0.22754631123266        0.03338385261574
H           -2.73054871469932        3.41807174710776        0.01724759795332
H            4.47014510215432       -1.95528524354318        0.15301390629478
H            2.42816928781442       -3.62902468290047       -0.00894996938721
H            0.18402404469026       -3.61487067150321       -0.12625081053871
H           -1.75498317312916       -4.34813677440446       -0.19678035790160
H           -3.17773358488220       -3.38184908575508       -0.11321746271812
H           -3.21246362174244       -1.28908517589586        0.07573953787983
