25
 energy: -49.058954982879 gnorm: 0.000335137511 xtb: 6.6.1 (8d0f1dd)
N           -4.55865788600465        2.30864485745848        0.21058827454122
C           -3.99066188134988        1.31784030945494        0.09276344155477
C           -3.31037392790337        0.10479850573470       -0.05404338637978
C           -3.88144314524150       -1.11785178432560       -0.46923883108847
C           -2.90614451048483       -2.09096449860757       -0.49533317503976
C           -1.67407273973511       -1.54234203403448       -0.06125986637714
N           -0.63412737130811       -2.29228920078675        0.13648435178807
C            0.61288400687063       -2.14102499156999        0.44426424720754
C            1.52333984259314       -1.07747105937300        0.21621028495132
C            2.86825728747821       -1.51880369048940        0.34323513078689
N            3.91929768993356       -1.94029799005196        0.51956895956081
C            1.32565568467956        0.27977625103814       -0.03252981407814
C            2.38540668852966        1.17996324497091       -0.28520566838503
C            3.65521796674083        0.87699323791732       -0.79214455596142
N            4.69146935510657        0.69957920124920       -1.25393257281276
C            1.95251550056594        2.50161924189933       -0.02221623627125
C            0.62792567003532        2.47592058500447        0.34324667559931
C            0.13816127111996        1.14525929954612        0.27309953487491
N           -1.13843647383923        0.93953844440209        0.34709991330269
C           -1.92488168740348       -0.08504347090703        0.17180841344878
H           -4.91979806260860       -1.25118972134910       -0.71302156846397
H           -3.03996795273081       -3.12447461202347       -0.75309277485096
H            1.07350289354571       -3.06027621112417        0.80026290136810
H            2.57677534224280        3.37117420571677       -0.11640760116529
H            0.00857738179145        3.31559121294906        0.59282260149227
