23
 energy: -44.823357762807 gnorm: 0.000519540334 xtb: 6.6.1 (8d0f1dd)
N           -4.37662800005114        1.53008330783668        0.00410715527443
C           -3.26429147289509        1.25931901346713        0.00430222693415
C           -1.86063484446776        0.99928584016891        0.00175289609142
C           -1.08270315041767        2.14671348710907        0.00370719645732
C            0.28784672409421        2.38788204439152        0.00305278447558
C            1.44099126886544        1.62536352077432        0.00131933836080
N            2.58923956343164        2.33732828337242        0.00168106600329
C            3.60541650169605        1.48748056559566        0.00048065609950
C            3.18142371277211        0.15557636088581       -0.00072739785581
C            1.78104214985869        0.17876324303269       -0.00044100358520
C            1.00913298326978       -0.98550992155178       -0.00201592546749
C            1.75612087182438       -2.20220154045973       -0.00324827841003
N            2.38487109890542       -3.15913326310656       -0.00382410169105
C           -0.36512679535347       -1.21423400837327       -0.00306023414300
N           -0.78155310864116       -2.50017526686527       -0.00587977097825
C           -2.10185530151917       -2.44740189241603       -0.00625317682798
N           -2.62415811873950       -1.21758965491643       -0.00359562235499
C           -1.58099647342869       -0.38023152999372       -0.00161940609459
H           -1.67753400238085        3.05498901521617        0.00604812238726
H            0.54552053519255        3.44257677660958        0.00440132821501
H            4.61762835762158        1.84915004207586        0.00051250015203
H            3.80483142110406       -0.71695966175082       -0.00181178222201
H           -2.71523438694142       -3.32791310270225       -0.00854036822038
