22
 energy: -45.095877272014 gnorm: 0.000847919546 xtb: 6.6.1 (8d0f1dd)
N            4.67268356673558        1.11178577256203       -1.12495096369554
C            3.74816898481401        0.53421192093770       -0.76642539086346
C            2.62618778822105       -0.18420630544451       -0.34657535134207
C            2.51399442376545       -1.58219883675492       -0.21567263041523
N            1.32789139208070       -1.96898601066695        0.22659830537835
C            0.56103587039498       -0.87353768104548        0.37046322550803
C           -0.81738715965469       -1.01913867196271        0.45696686452912
C           -1.24913998486213       -2.36955793731582        0.59914626008837
N           -1.63773207867595       -3.43481657005671        0.75644986525411
C           -1.85181358931501       -0.10384545205430        0.17337786152225
C           -3.13986510814518       -0.45136659181234       -0.18928733208411
C           -3.71672208981155        0.70123851953250       -0.78379510213288
N           -2.91247689129708        1.73761713755338       -0.80694110630023
C           -1.77937675860877        1.37398767290982       -0.15241843403106
N           -0.97810711734996        2.26972455419472        0.28749379106172
C            0.19225507525509        2.26683957904667        0.87637407105933
N            1.22635600629504        1.56505753062627        0.53980146012886
C            1.40383272591481        0.34722416480309        0.12609680245210
H            3.27900688356337       -2.30671780152757       -0.42916015948654
H           -3.60482356008355       -1.41306630293982       -0.09421561754832
H           -4.70618590640707        0.77384074034846       -1.19961938049168
H            0.37248077367582        3.08442677416582        1.56705135390897
