27
 energy: -52.519131899175 gnorm: 0.000855207300 xtb: 6.6.1 (8d0f1dd)
N           -4.41968955293041        1.99666899831531       -0.62068362992706
C           -3.75498311023342        1.10369566492807       -0.33775464467796
C           -3.06441347463786       -0.06645066607032       -0.00216737677408
C           -3.74282653761241       -1.20654843707193        0.52815252706083
C           -2.85825954650936       -2.23247990282212        0.68595217336523
C           -1.58429668811456       -1.82948031923625        0.17505642217169
N           -0.70155836351964       -2.71040409672666       -0.12246913104473
C            0.51154283871072       -2.79473871211085       -0.60552830596528
C            1.60312671776000       -1.95920524203581       -0.46163968289115
C            1.69038335062335       -0.61335013533487       -0.10206371453672
C            2.92860291242435        0.02370799478224        0.09546554242987
C            4.19150909747560       -0.55725414619691        0.15822207828716
N            5.24762610409025       -1.00941631011391        0.21321054641153
C            2.65611579371564        1.42108845890091        0.21384079688367
N            3.54077984918322        2.39725565056057        0.42342493218521
N            1.35109707269841        1.66323964407373        0.08181228361141
C            0.71271834066133        0.49163514054555       -0.08539019973421
C           -0.68255998687513        0.58455964983921       -0.21458832409838
C           -1.09746582041127        1.94977520485802       -0.25180861053128
N           -1.41503288561785        3.04906075154874       -0.29833274571620
C           -1.70104318036576       -0.36678437428369       -0.13647738058554
H           -4.79414718729015       -1.22126414451152        0.75160695069391
H           -3.06662769590387       -3.22338520897035        1.03966554349075
H            0.70812312484302       -3.77079200271012       -1.04226385773373
H            2.56401877493282       -2.42661233384911       -0.64963005482548
H            3.20758757783608        3.34457430033506        0.46973999796803
H            4.52139175946425        2.19696069366158        0.51115605548840
