25
 energy: -43.483704350044 gnorm: 0.000627109017 xtb: 6.6.1 (8d0f1dd)
N            5.11175248113001       -0.94530666463571        0.03058294029715
C            4.14845339510646       -0.31672300640759        0.02081845570163
C            2.97524806657956        0.44016343953573        0.00984750087118
C            2.90746465393256        1.83392907236402        0.00598483125945
C            1.57261726082045        2.21660593029499       -0.00442928880636
C            0.74613551208486        1.08223453257552       -0.00710505315233
N           -0.55211244042433        1.25992320130226       -0.01464145271520
C           -1.59868047028429        0.49899092421428       -0.01350424546377
N           -2.78986548881849        1.13722256989227       -0.01570871418144
C           -3.74786375184448        0.21698930639577       -0.00698358534597
N           -5.04765600612717        0.55300607178454       -0.03045678663310
C           -3.21422446835247       -1.10224238056082       -0.00099867048251
C           -1.83752427217150       -0.98347601734312       -0.00548071021252
C           -1.00384076540325       -2.11514840473083       -0.00836027249609
C            0.35186483454918       -2.31615490627841       -0.00753491404427
C            1.46887402480722       -1.46453646035169        0.00023531801549
C            1.65044642850483       -0.10409012189317        0.00126153566353
H            3.75802495115395        2.49192666302250        0.01028954911776
H            1.19752192075399        3.22167171851911       -0.00944082923309
H           -5.76192818856275       -0.14215403279649        0.08695014164536
H           -5.28410784120909        1.52734071088549        0.03299269414974
H           -3.78808861518917       -2.01040811632534        0.00536807889213
H           -1.58059911709529       -3.03653153033466       -0.01181151903270
H            0.63265073257409       -3.36387456820400       -0.01115593089531
H            2.40832601248533       -2.01290277862468        0.00627586808134
