25
 energy: -53.071354428993 gnorm: 0.000836621770 xtb: 6.6.1 (8d0f1dd)
N            4.78884550938976       -2.11751337972078        1.37351865523575
C            4.08251044294057       -1.30824703038063        0.96912576174920
C            3.22270662709465       -0.31244449107776        0.49942881474902
C            3.47194593814694        1.05730430003676        0.41921555541700
N            2.44605231012716        1.75269124303819       -0.08591786976231
C            1.46577877937846        0.90050321078937       -0.36884206657431
C            0.16237019833932        1.37141799616418       -0.54411326259988
C            0.04501757921366        2.79023614879302       -0.58385026180752
N           -0.05853630783054        3.92700533673936       -0.66075199228101
C           -1.06472094706170        0.70296705775759       -0.41528594848561
N           -2.15237212482514        1.41370480755111       -0.14865010786833
C           -3.12317945806129        0.56475324976312        0.25219140222218
N           -4.31913684506366        1.01450119899350        0.61247799819670
C           -2.68727810653661       -0.78999034122720        0.22526970016382
C           -3.47047981075773       -1.89164308263062        0.56776924856643
N           -4.15750316048498       -2.75950584400800        0.87452255860148
C           -1.38363602793183       -0.76814764328723       -0.29804431335098
N           -0.77568688301384       -1.79473970645839       -0.81476131644770
C            0.44310986423018       -2.03470241465890       -1.18791885579281
N            1.54103734942711       -1.62881573067047       -0.60608608116861
C            1.95775946135802       -0.51084685055694       -0.13130128942620
H            4.37097486037657        1.56570427561016        0.71823268204443
H           -5.02813038002494        0.38329761379189        0.94605065475279
H           -4.50334769205596        2.00192641241179        0.54705700777219
H            0.56806906052675       -2.82496955096359       -1.92155028910902
