30
 energy: -55.677259699308 gnorm: 0.000724298943 xtb: 6.6.1 (8d0f1dd)
N            0.27003184438023       -4.66196243601297        0.44571478164568
C            0.65934899530260       -3.59145285059051        0.29428823635826
C            1.23513715057206       -2.32361740273763        0.18646722982975
C            2.60471346329988       -2.07834935537293        0.38340500676615
N            2.89175488380573       -0.79157881453371        0.30745047693294
C            1.73911688208275       -0.11149612228409        0.11704206734960
C            1.91191028745232        1.26531987382063       -0.05490045771792
C            3.29863580933665        1.57709358351129       -0.15493533938019
N            4.39128380700380        1.91186564565946       -0.26333926244830
C            1.05509565165339        2.38818757090473       -0.06128786027144
N            1.66176928606449        3.59446469874771       -0.26380598497709
C           -0.32563586128226        2.47023187346587        0.18027287320278
C           -1.41357006312817        1.62167179867077        0.20852656743741
C           -2.69419781888449        2.16530617488423        0.41026183759876
C           -3.66698759056255        1.18484635614011        0.20318195399113
N           -5.00273774861979        1.34253962688441        0.27623298910847
C           -3.00385065799073       -0.01359223716726       -0.13314011148586
C           -1.62495788737830        0.18363893198004       -0.09399905316579
C           -0.74384925335104       -0.89643736820012       -0.24052250357974
C           -1.38765529925548       -2.07931349043137       -0.70392708740847
N           -1.92316196621408       -2.97640951495861       -1.17659839314929
C            0.61887159408138       -1.05329492675065        0.02633103489573
H            3.36818010316920       -2.80836762191942        0.57962041521749
H            1.13867268752898        4.44543980770915       -0.16653506601633
H            2.66351920222759        3.65125695797830       -0.32966095610725
H           -0.63295469444641        3.50218266461943        0.33666873322739
H           -2.89218416646898        3.19326766332797        0.65142783323756
H           -5.39286052575391        2.19892864927165        0.62462206788691
H           -5.60537339964047        0.54716077314991        0.16535400346927
H           -3.49401346288473       -0.94708637916581       -0.33595265004821
