28
 energy: -56.245131131558 gnorm: 0.000796497516 xtb: 6.6.1 (8d0f1dd)
N            5.34069038661953        0.19908967793312       -1.11971986439194
C            4.39285030129885       -0.36182035519517       -0.79118714998249
C            3.23266570307977       -1.03295746161009       -0.39942551627439
C            3.07947226694545       -2.42771758086904       -0.24717192272673
C            1.79919888941211       -2.72324403043848        0.17744831657174
C            1.05460024792546       -1.53101480857332        0.28014550469437
N           -0.23361945654508       -1.54719100774206        0.39477718349847
C           -1.18716602696315       -0.66528621377163        0.20631020879049
C           -2.53676667753660       -1.05820070460852        0.22079579543497
C           -3.08591141283135       -2.28623691630499        0.57274314110432
N           -3.60613610026000       -3.27161305075809        0.85739581106946
C           -3.28902244363273        0.05423898584801       -0.28756540713487
N           -4.60757774726130        0.08304480699190       -0.47704258982041
N           -2.50637596247937        1.09138915004700       -0.56891715859728
C           -1.24385608989208        0.77035692653770       -0.22192010547819
C           -0.33213531231174        1.80688505074261       -0.11231995648798
C           -0.84648625521795        3.09331789446316       -0.39485031597995
N           -1.20663904896846        4.16448926222577       -0.59630151732489
C            1.02798976870765        1.79122764429736        0.36554832388236
N            1.47314864195565        2.90262725754310        0.99197458077224
N            1.92374818968638        0.87602803252750        0.14164359814027
C            2.03134849925061       -0.40211028681562       -0.01011584227912
H            3.86142074332561       -3.14158851648931       -0.43661164138361
H            1.39526070730376       -3.69884095960939        0.36541628701683
H           -5.17731536268794       -0.71046521461079       -0.24027752538778
H           -5.02287774450009        0.91032585263861       -0.86947924248874
H            2.45727568730429        2.97416835705807        1.19106196977310
H            0.90797726277243        3.73518889273908        1.01079087288792
