24
 energy: -48.552907467409 gnorm: 0.000750005887 xtb: 6.6.1 (8d0f1dd)
N           -4.13885849507690        2.50707723386949       -0.13407871952664
C           -3.62797577922507        1.47962742553240       -0.09323992361599
C           -3.03657623128077        0.21334870120075       -0.02724436397827
C           -3.71226914464611       -0.99023547978572        0.27335632814746
C           -2.82431043497674       -2.04430313525203        0.25366384678284
C           -1.54583460415825       -1.57952778784458       -0.12074893979682
N           -0.52438920189317       -2.35872038852337       -0.21127585090636
C            0.76113218357298       -2.31798153361106       -0.35086573506325
C            1.70637172876471       -1.35123538580613        0.04168508086628
C            3.03873621131644       -1.82807447654146        0.13512112257119
N            4.10338056746280       -2.24790639201752        0.20162843376485
C            1.58378945311223        0.03434624364870        0.20022819837392
N            2.64586430125948        0.77492365643628        0.47189573857245
C            2.32310087797630        2.02815936542944        0.06118562182285
N            3.19495498300682        3.02550188238407        0.12249765760200
N            1.07755969412950        2.18146273336444       -0.40851176677566
C            0.49427547450287        0.98831907235282       -0.27273146242310
N           -0.78722878519188        0.86179594195167       -0.37013121652996
C           -1.67696956333866       -0.07022304575139       -0.27244133219310
H           -4.76541228270182       -1.05461690951076        0.48037498640132
H           -3.05287541066968       -3.07621008501918        0.44030586889652
H            1.18276760217273       -3.26040731172103       -0.69593353799863
H            4.10546747571824        2.85844097666042        0.51332986397476
H            2.92363830876341        3.93521233425334       -0.20751056926836
