23
 energy: -44.818963609595 gnorm: 0.000829833616 xtb: 6.6.1 (8d0f1dd)
N            4.92517225876852        1.01533777158322        0.55087510186241
C            3.94098525322874        0.44077924378258        0.40947504436028
C            2.73824387235070       -0.24468215968060        0.22800899819568
C            2.55356554657229       -1.63893169067602        0.20074606701210
N            1.29380043675472       -1.96537797548519       -0.02041626592971
C            0.56852957013618       -0.82951948570584       -0.12048135369360
C           -0.80527654160037       -1.00077670599091       -0.28115960924781
C           -1.18432435263407       -2.37144051914950       -0.40379031681703
N           -1.54214925235672       -3.45012325755664       -0.54208607876841
C           -1.88583203417492       -0.11532708321559       -0.17196578611226
C           -3.21312061721824       -0.49493750372530       -0.02030039368669
C           -3.89266175371228        0.63273601895398        0.49126598157502
N           -3.11991211332949        1.68914507509489        0.62346365680705
C           -1.89083100412367        1.35387361862781        0.15488367719107
N           -1.05282548233363        2.28669471056751       -0.11188474736615
C            0.17859190900904        2.46772849416741       -0.48108278194328
C            1.31578705583807        1.69475265386937       -0.24693095193390
C            1.46448499769850        0.34091933920594        0.01139983259753
H            3.30497882877404       -2.39498365286558        0.33623861664250
H           -3.63908208059216       -1.45807827580896       -0.22370076841086
H           -4.93082482315506        0.68245442143307        0.76799898385374
H            0.34827139842452        3.45516045628328       -0.90287525068659
H            2.25189704137459        2.24256133639033       -0.29520669040162
