30
 energy: -60.483155751796 gnorm: 0.000874137549 xtb: 6.6.1 (8d0f1dd)
N           -5.69936082393135        0.09011276192944        0.43021862098363
C           -4.65645704838899        0.55907324150465        0.31459988489983
C           -3.37473584897634        1.08796153894915        0.16941073551881
C           -3.01445243462093        2.44045236781235        0.08378053389750
N           -1.71143147608160        2.59614159195578       -0.07029171296847
C           -1.13354450418716        1.37484237903947       -0.06998655271763
C            0.25297529287470        1.36325091777452       -0.15863022912901
C            0.77285114851514        2.67711096709563       -0.35944990446151
N            1.19205790778528        3.72113551479560       -0.57249507634701
C            1.21440396289527        0.34538889615006       -0.05115009631834
C            2.59028393118953        0.60346509106874        0.02281521414767
C            3.34065058386740        1.77830630143088        0.06127879202379
N            4.10759625483948        2.63196821873128        0.13039813754950
C            3.24196496917046       -0.67502418574944        0.12504703373448
N            4.55198674790821       -0.87918000900328        0.23658410163303
N            2.35494786486029       -1.66185952609603        0.09409149888390
C            1.11963451467138       -1.12858099794795       -0.00416918604937
C            0.11299125642462       -2.09090121954625       -0.08853416594194
C            0.69989101872739       -3.39195312152879       -0.10342404221949
N            1.09708679113569       -4.46815463264269       -0.12955769908879
C           -1.30642034194140       -2.09784379981744       -0.12934405982287
N           -1.88407547192590       -3.31836468847619       -0.27209003875003
C           -2.22157996085803       -1.04275153095805        0.00158382724576
C           -2.17156422227442        0.33333180543943        0.05935123436791
H           -3.66967266801892        3.29093146897200        0.13017306222333
H            5.18879544685588       -0.10067778767165        0.25421880397699
H            4.89412513330494       -1.82220464659111        0.30409882705678
H           -1.32335191552134       -4.15170597779388       -0.32860069017131
H           -2.88451857118961       -3.40993346197357       -0.25605795514381
H           -3.24687125010261       -1.40543957265821        0.05186486528388
