27
 energy: -51.722265368725 gnorm: 0.000899223878 xtb: 6.6.1 (8d0f1dd)
N            3.18223151927522        3.43745113781624       -0.06675709314673
C            2.39565729550676        2.60166536466366       -0.09017829099626
C            1.42557507085386        1.57086567081576       -0.12097083751096
C            0.14413909719106        2.01403460193015       -0.45879427130988
N           -1.03404456177286        1.48263863513645       -0.28525833012232
C           -1.55224134923257        0.30746906011343       -0.18025796425536
C           -2.92145017081899        0.12641443587417        0.14755945344751
C           -3.83914336281727        1.12414453956034        0.47361207103490
N           -4.64090903895509        1.90040174886338        0.75248883299320
C           -3.24315274876993       -1.24289663195800        0.03360834460515
N           -4.45738798662742       -1.77155313598364        0.23406860273505
C           -2.07183207401230       -1.95689835818837       -0.31218929555236
C           -1.00161033952863       -1.08592013604414       -0.41330023814129
N            0.22351897251173       -1.54939313188610       -0.52418110161016
C            1.40829325204292       -1.08475755448168       -0.31557075180525
N            2.42711559904332       -1.96365960925644       -0.34308188241514
C            3.51335141553104       -1.34108030471192        0.11173335839326
N            4.67811039713992       -1.98119639560112        0.25052436494579
C            3.26817876026706        0.03198160163429        0.40987319804474
C            1.95164637920676        0.27704821737510        0.09216740189047
H            0.08370147840823        3.04773171245490       -0.79485787676954
H           -4.61495573330336       -2.75483501782174        0.10313598536155
H           -5.23104876754595       -1.17588549069137        0.47621274782411
H           -2.00570499767834       -3.02027140249339       -0.44055889931975
H            5.49585715826113       -1.50057298153760        0.57927185588952
H            4.73678156098917       -2.94210200178298       -0.03741412703543
H            3.99244299363416        0.73239835199977        0.77908224052454
