27
 energy: -52.519931531352 gnorm: 0.000540242019 xtb: 6.6.1 (8d0f1dd)
N            4.49084311402565       -1.97348233976053       -0.00064700532094
C            3.78977283268063       -1.06577881013027        0.07165073240523
C            3.03669034965607        0.10460040075249        0.20068603066323
C            3.55107254970237        1.26118078124100        0.84131888477113
C            2.61283073499627        2.26460304142319        0.82114622616742
C            1.48080598375032        1.81260828439075        0.10191497738654
N            0.63710432269875        2.63242889154876       -0.43902977884176
C           -0.51177992149403        2.51749953610377       -1.04160573826827
N           -1.50863137483707        1.74433312339527       -0.71943586668280
C           -1.59386879584042        0.53729838368682       -0.24627021174625
C           -2.81917438235861       -0.00439330652256        0.20734226003334
C           -3.97882690340727        0.70500810231624        0.51868223648754
N           -4.95750748144427        1.23712344717766        0.80165280855445
C           -2.70964526036424       -1.41537519435863        0.22027387607066
N           -3.68520332133476       -2.26914654988745        0.55451680388465
C           -1.39770256176346       -1.76385435501283       -0.16980159678919
C           -0.64687975438083       -0.61251959753038       -0.37996307332195
C            0.76247678853479       -0.63154403722317       -0.47320599150526
C            1.27187295845249       -1.94413856759526       -0.68222826359032
N            1.60483010775077       -3.01257502339897       -0.92887737396800
C            1.70243074519206        0.35727787261309       -0.18662104717621
H            4.53610036747332        1.31765069398061        1.26840639872804
H            2.72668951818991        3.26283694574640        1.19586641633341
H           -0.74787013197055        3.30711367539068       -1.74964880548166
H           -4.58705368800313       -1.91971858357245        0.83074165505610
H           -3.54311626992182       -3.26103351521203        0.48072248865749
H           -1.03053093251693       -2.77153713583413       -0.22918953172341
