26
 energy: -47.992277625790 gnorm: 0.000695795747 xtb: 6.6.1 (8d0f1dd)
N            2.27156359908742       -3.53744977559624       -0.00531630956377
C            2.36847230193666       -2.39298032426031       -0.00505137140046
C            2.53194638188150       -1.00403942397219       -0.00207666182327
C            3.76991565816455       -0.33509240391860        0.00340632461430
C            3.55059649972791        1.02739133103309        0.00522018844619
C            2.16348960434534        1.29791728535159        0.00005536227032
N            1.77271855142993        2.54299606977676        0.00058958549760
C            0.60846627424852        3.14899521823717       -0.00182178162745
C           -0.72735655278617        2.75639483084058        0.00134005196383
C           -1.39151161586987        1.53272667013996        0.00271357472809
C           -2.78803529044811        1.47828842456119        0.00691611196082
C           -3.22802973976385        0.14726046789431        0.00185246336447
N           -4.49932489952259       -0.28699096434038       -0.01074373691441
C           -2.08068138416807       -0.68624845255178       -0.00591598933631
C           -2.14373490433909       -2.08084086001811       -0.00810229556871
N           -2.29484029530867       -3.22001938026990       -0.00624859397679
C           -0.91663102472813        0.12029728586133       -0.00425987156802
N            0.24786003193036       -0.46635285531936       -0.00629341052392
C            1.48166175435404       -0.04962529778972       -0.00421241936179
H            4.72667131015055       -0.82625727933623        0.00550350045342
H            4.30161189872968        1.79454272053671        0.00876756716579
H            0.74449949813762        4.23027827904361       -0.00457790598967
H           -1.41076437614665        3.60018565678977        0.00255564444763
H           -3.43575334963424        2.33680693250054        0.01312597367493
H           -4.68903509563413       -1.27383595431032        0.02421788605486
H           -5.26288709337456        0.36280830461652        0.04416311881230
