22
 energy: -45.093785124573 gnorm: 0.000845928073 xtb: 6.6.1 (8d0f1dd)
N            4.75130347234412        1.05904149149740       -0.97447916512278
C            3.81366840392817        0.48296486461753       -0.64865071915684
C            2.67230978042021       -0.22374566039715       -0.26174968948898
C            2.54411461268852       -1.61379248274189       -0.10063332838978
N            1.33517739363854       -1.97830745043365        0.30256877941322
C            0.56296734547326       -0.88433944055902        0.34249556780723
C           -0.81586339779814       -1.00399693791204        0.34115109938363
C           -1.30314805828539       -2.33934619067402        0.45118819260446
N           -1.69598264097049       -3.40597650502446        0.58069221609103
C           -1.82130479135184       -0.05847227548276        0.04270874232015
N           -3.04924778695883       -0.50603888631214       -0.18716735259204
C           -3.76881043870464        0.57363026354045       -0.55191462106849
N           -3.11933600417691        1.71338646354444       -0.56894100457533
C           -1.84990583709087        1.41899801037838       -0.17700910485394
C           -1.00671516837364        2.45636365132377        0.12951797972764
C            0.30957140114674        2.43331837182259        0.63372366032556
N            1.23649960751152        1.56647218219303        0.43100096402129
C            1.41955614687907        0.32967892961236        0.11368005090152
H            3.31352585055531       -2.34940850127963       -0.25180098103467
H           -4.80871114355292        0.49255936824784       -0.80771752578806
H           -1.45355694573886        3.43634039922289        0.00909826065844
H            0.65193756461617        3.32560985430047        1.15121851862089
