26
 energy: -53.575067263849 gnorm: 0.000973207037 xtb: 6.6.1 (8d0f1dd)
N            3.60464189685027        2.39387397332791       -1.01436897410114
C            2.62946127950847        1.96055861090729       -0.59888117644933
C            1.31984665421030        1.53196823594145       -0.21654731667001
C            0.47600718234998        2.64714029515273       -0.12296325920892
C           -0.85920204734658        2.82175809662003        0.17409154537166
C           -1.94006967579399        1.95232599953715        0.23913163327745
N           -3.15998014699904        2.47945727853419        0.46187249024456
C           -4.01487769761441        1.47509513601015        0.32301447284553
N           -3.46827825946200        0.30148710720258        0.00554047922852
C           -2.14519570743180        0.52180604320290       -0.03653958719873
C           -1.31391534297534       -0.59256636193173       -0.24455998221276
C           -2.09478938431479       -1.72645156778578       -0.62387671278509
N           -2.74248152138301       -2.58012989009141       -1.02710377544414
C            0.05383453780623       -0.78384157745188       -0.08223831946251
C            0.60683191580363       -2.09388936741116        0.02672721142375
C           -0.04807234924633       -3.33668904391628        0.05930187191486
N           -0.46327238446726       -4.40290456737183        0.13837051309821
C            1.98167415279089       -2.00057707851320        0.23744263341762
C            2.34780327826088       -0.65198286408958        0.18974013093517
C            3.66408616860553       -0.23668147579267        0.45302002381184
N            4.74707791308645        0.00514787835457        0.74292735022508
C            1.19220505223064        0.15144303044267       -0.00445606417052
H            1.01375422489759        3.58002469683642       -0.26332524880506
H           -1.16708419855629        3.84955536499889        0.33300698778366
H           -5.07382055683036        1.59373242039703        0.45118492367469
H            2.64744808222017       -2.82496609001052        0.41440549955547
