25
 energy: -53.062105896069 gnorm: 0.000548452398 xtb: 6.6.1 (8d0f1dd)
N           -4.50885809033066       -2.40235238722616        0.41284022748599
C           -3.54812878192228       -1.79964388100382        0.25082532200515
C           -2.33255235803764       -1.10160273867713        0.03198359149575
C           -1.29446523430201       -1.88491003962608       -0.54348607901022
N           -0.01933234448704       -1.74463979232373       -0.48093247665034
C            0.88432064628054       -0.83983882918926       -0.27448816922565
C            2.21657569100951       -1.15556207662896        0.05386865776343
C            2.73500404862414       -2.43270482033275        0.29113306423973
N            3.20746029307689       -3.45938816632024        0.49372916893920
C            2.99020893989261        0.03357601048084        0.08071789076457
N            4.29675894170850        0.11141118212862        0.32298472805512
C            2.13052567821162        1.13364567164330       -0.19563121370737
C            2.57221051597020        2.45935267493688       -0.25408488084636
N            3.00984293799297        3.52016193876072       -0.28649251480283
C            0.81581555746745        0.66616884075363       -0.36913459276861
N           -0.19436795131170        1.48005980025925       -0.42537652409328
C           -1.47022072461976        1.39466148635895       -0.22899943922647
N           -2.23382602800232        2.49413223951197       -0.25211069658871
C           -3.40097246218196        2.13037872256016        0.26837770264583
N           -3.52984591857414        0.85180988514137        0.61868094872652
C           -2.38299495196832        0.26722137389201        0.25112581262139
H           -1.61158997549121       -2.81883485475854       -1.00247349138173
H            4.82875441991949       -0.72102938503303        0.51887674842794
H            4.76202298145735        1.00467493912317        0.30861982628863
H           -4.20086984488347        2.83410981537231        0.40869761933979
