27
 energy: -52.517399943456 gnorm: 0.000712636597 xtb: 6.6.1 (8d0f1dd)
N           -2.99706345961889        2.91670019473137       -0.59228289956649
C           -2.09374661432798        2.25650843020048       -0.34491283294884
C           -0.87183844928143        1.55079176836950       -0.12296793640893
C            0.17994596300843        2.47945021562405       -0.06488746565478
C            1.54399013477803        2.40899334005352        0.10874050874864
C            2.45867975162019        1.36362905279041        0.15299893791083
N            3.76039363333500        1.66865128294779        0.29449228675418
C            4.40773429453139        0.50795719665847        0.22046107764883
N            3.64759476290488       -0.56348124907420        0.03328953812303
C            2.38168053815536       -0.09851202078622       -0.00485101643637
C            1.35591100565843       -1.03427038802811       -0.13826838838632
C            1.88523185515731       -2.35050049261080       -0.29648857343051
N            2.28766414040919       -3.41243398407242       -0.44671852575394
C           -0.04259043606477       -0.96683572599540       -0.07895977540628
C           -0.79051976261259       -2.14708457020439       -0.06332447814142
C           -2.15232049740242       -1.85228651875605        0.06618123359583
N           -3.16586532806441       -2.71999428847597        0.15806969086785
C           -2.28136350720984       -0.43353353273141        0.08613410107903
C           -3.54487788940956        0.13631970617347        0.27561777758882
N           -4.63836695486717        0.42536659152594        0.48112855810368
C           -1.00574818854143        0.16071229651017       -0.01564665361051
H           -0.18404981007015        3.49983353106033       -0.14564784136263
H            2.04260865553415        3.36777490424069        0.19841013172758
H            5.47610391743286        0.44116685178308        0.30488032846859
H           -0.38019407782390       -3.13768777329469       -0.11539866018182
H           -4.10739707611322       -2.38220931331665        0.27015851125391
H           -2.99286306281660       -3.70960106282575        0.14971633441690
