29
 energy: -61.530767333326 gnorm: 0.000811897408 xtb: 6.6.1 (8d0f1dd)
N           -5.10240079375264        1.54740758224151        0.20772594569868
C           -4.19509514084728        0.85732511154601        0.07455311286523
C           -3.18388978476129       -0.08862122758499       -0.12163950664803
C           -3.44932550110979       -1.40531721214166       -0.60234871201674
N           -2.36024222488792       -2.11364346660895       -0.71969120325184
C           -1.30637821082643       -1.34481840378416       -0.30899969999751
C           -0.12947114420481       -2.04662391337247       -0.13550487965962
C           -0.27779650134638       -3.41874861199177       -0.50198378060171
N           -0.31617452601115       -4.52723777945034       -0.78933478165992
C            1.15509005980063       -1.74627455114074        0.42619000951226
N            1.80291200400682       -2.80131110579018        0.96917195960824
C            1.84431907368311       -0.52051895269485        0.36934756816789
C            3.18633365875249       -0.60324117163183        0.83406326228444
N            4.23452445636579       -0.70286424397663        1.28929841966371
C            1.49069123995521        0.77336252887302       -0.06512423796652
C            2.45273160543553        1.75467100494237       -0.37776433963097
C            3.80733294521312        1.58811492180832       -0.68667908730919
N            4.90672085198641        1.49986824235153       -1.00409222430440
C            1.76132432776384        2.98874593862487       -0.45075637411543
N            0.49171824685107        2.85389010783193       -0.14699353595496
C            0.23277461786000        1.53607958849327        0.03048205202062
C           -1.09931748665347        1.20555086251578        0.24833505095759
C           -1.88902785069953        2.34495113961932        0.58332851297961
N           -2.49607880162420        3.25216815928421        0.92726098358853
C           -1.78903565975880        0.00315881420521        0.02829613512145
H           -4.41360350961495       -1.80883655108319       -0.85037162509099
H            2.75962072207738       -2.71031400930261        1.27205083093425
H            1.39517933665534       -3.72129055754963        0.93310891231841
H            2.17506277199015        3.94363538096647       -0.71627306431650
