28
 energy: -56.254329151400 gnorm: 0.000819906986 xtb: 6.6.1 (8d0f1dd)
N           -0.08086686576187       -4.65055567848037        0.67232498374421
C            0.49076136876265       -3.69732932403916        0.38128649050488
C            1.19101733022551       -2.54139493723498        0.03636103066975
C            2.48348955954637       -2.48267424019223       -0.52650601516956
N            2.87270816292141       -1.24840241684433       -0.76835520339990
C            1.88494109779162       -0.41422910769824       -0.35392650231261
C            2.20084359728009        0.92579826652957       -0.25502975692486
C            3.51022059718552        1.29088636539751       -0.64435693780186
N            4.55833182226615        1.66317225892416       -0.92642140029890
C            1.41531754441062        2.00727684815845        0.30045551835341
N            2.08464731066689        2.94693617867790        0.99640000027611
N            0.15927279668025        2.23267955771019        0.08902374166092
C           -0.95795244080564        1.61766721451102       -0.13604729699990
N           -2.02169798537572        2.31297514566045       -0.55541015440499
C           -3.09615688971878        1.53791177352214       -0.38114506759508
N           -4.32432471475162        1.94978056181273       -0.68925129444952
C           -2.75537162103879        0.25407162604465        0.16400554780959
C           -3.67448239283912       -0.74347292563083        0.46776238397424
N           -4.47457735273029       -1.53401142168587        0.70903540981233
C           -1.35308995978036        0.22949295209957        0.24351665461259
C           -0.59917154023457       -0.91920555399998        0.42108992956877
C            0.72256389514839       -1.20788515118433        0.11885757240549
H            3.12173077326830       -3.31723872220473       -0.75429254900058
H            3.09020722856861        2.93396436997423        1.03540782779002
H            1.58952120004707        3.77638275190969        1.27842727807425
H           -5.12127019182358        1.36162288658935       -0.51606955108329
H           -4.44395394819566        2.86623970956528       -1.08513221606116
H           -1.18793166601282       -1.79698854769276        0.67958195334410
