25
 energy: -44.268918141998 gnorm: 0.000995705074 xtb: 6.6.1 (8d0f1dd)
N           -3.70404548208015        1.84643661758492       -0.62891690065319
C           -3.02288533054740        0.96031071285692       -0.36240812400430
C           -2.30498960671988       -0.21732864533051       -0.11690729992781
C           -2.95228477480569       -1.46708761214617       -0.10597815767443
C           -2.00228233064189       -2.45163171867695        0.05567412951329
C           -0.71138972427650       -1.87393460233887        0.10328354357669
N            0.29661031509372       -2.70141028243584        0.23167449601293
C            1.59363771529032       -2.62415751490750        0.18866672336059
C            2.52543997146506       -1.59957483070801       -0.03357639974524
C            2.45993532767437       -0.22513017621062       -0.13205832801295
C            3.65451735310741        0.51712048393121       -0.30229786704008
C            3.38016306960501        1.86943771402117       -0.22850466251071
C            2.01136722519006        2.03074911536111       -0.01617015494479
C            1.38347971892490        0.77292603427238        0.02400429277304
C           -0.01238964267320        0.66818816791544        0.11403881845000
C           -0.63343135519793        1.92890702639931        0.36969296915209
N           -1.07692943829967        2.94035210343169        0.67574115865668
C           -0.90100824754292       -0.40551099212153        0.01754718783346
H           -4.01304674871818       -1.60239265151016       -0.21079645238024
H           -2.17409812393963       -3.50898760911126        0.11609385690907
H            2.04731345747732       -3.60711819323574        0.31275136431933
H            3.53823472367370       -1.97833449998139       -0.13206304574903
H            4.62309730509843        0.07480984752104       -0.44697681818801
H            4.09398962159096        2.66730061129421       -0.31616026861685
H            1.50854245914984        2.97531694912567        0.07445737729058
