30
 energy: -60.485289173471 gnorm: 0.000527231926 xtb: 6.6.1 (8d0f1dd)
N           -3.50699510718503       -3.04128412800130       -0.93669519992715
C           -2.67032255142562       -2.29313870379368       -0.70368842391000
C           -1.56846427059085       -1.42457082015357       -0.49313465425142
C           -0.33323377278861       -2.05849890423494       -0.74416480105099
N            0.86013888299588       -1.79636933690546       -0.31639279424804
C            1.61390404796815       -0.80502557168515       -0.00576366278289
C            2.93883112440837       -0.88991666892089        0.47105853091905
C            3.53697399339411       -1.97709259283813        1.10643889291855
N            4.07299702158720       -2.84563885454372        1.63579000519712
C            3.61811224665624        0.30796968814707        0.12512358008412
N            4.91559473705282        0.54662140873523        0.33030512290538
C            2.69999788220490        1.21246456679001       -0.47092627259283
C            3.03767360127913        2.47772757553806       -0.94618195537404
N            3.36406933560005        3.51409158670349       -1.32288178497830
C            1.40704658559621        0.64481039573681       -0.40858397156288
N            0.31564251669850        1.32285771586555       -0.40868578203837
C           -0.95842802611328        1.11176096093507       -0.16231046391039
C           -1.75520782010395        2.20354699072400        0.16985432022095
C           -3.07186548773752        1.77787871159845        0.39928910488370
N           -4.11690987583149        2.53484705671106        0.74731177307093
C           -3.12296351105801        0.36546513795829        0.20160913618698
C           -4.30777120674422       -0.34595603349603        0.40741276990415
N           -5.33613302249563       -0.80563047999087        0.63748749459371
C           -1.84671232861028       -0.10067260742535       -0.15220885269070
H           -0.39357165156862       -3.00906036234636       -1.27022359914813
H            5.32820050559977        1.40772541268163        0.01305066827019
H            5.48945020766206       -0.13910317792634        0.79174002122870
H           -1.39579922643720        3.21183682601285        0.23808740943567
H           -5.02255178699735        2.11285770642345        0.87175032733447
H           -4.01104948591151        3.52526381160034        0.87949310530036
