23
 energy: -44.033171671740 gnorm: 0.000545228814 xtb: 6.6.1 (8d0f1dd)
N           -5.05562410351561       -1.06731710046597        0.01277780640322
C           -4.09770001632648       -0.43383827848380        0.00901286870192
C           -2.95039493685382        0.36689381150289        0.00389007704724
C           -2.94339650509480        1.77388267844436       -0.00143618846888
C           -1.64085538425440        2.23108149419101       -0.00533708758110
C           -0.74435691285645        1.14242894935186       -0.00257037121611
N            0.53077300991020        1.37522383452978       -0.00592703471035
C            1.59051749328363        0.60120883501596       -0.00517786864366
N            2.78779850723652        1.18883444298294       -0.00946514602608
C            3.67905994543947        0.18272653449465       -0.00796245509276
N            4.99274524157323        0.39409413152387       -0.01112566621162
N            3.14963324875350       -1.05827246024756       -0.00284516360354
C            1.82634587101821       -0.88059488846824       -0.00066650139111
C            1.00737692329125       -2.00886728592951        0.00544558215709
C           -0.36612049045418       -2.19136200311632        0.00932658391657
N           -1.41901722319133       -1.40080195206470        0.00813843508386
C           -1.61742256636227       -0.11723764320412        0.00367584325859
H           -3.82939947893160        2.38423164118392       -0.00219053577492
H           -1.32188359151087        3.25584543171873       -0.00974124059503
H            5.61898276822204       -0.39069972752610       -0.01046592132445
H            5.33728658427935        1.33718052331253       -0.01558962500792
H            1.58665103791292       -2.92503941883455        0.00780031042546
H           -0.67818790076861       -3.23478385241138        0.01438687125356
