32
 energy: -64.725877508418 gnorm: 0.000470356124 xtb: 6.6.1 (8d0f1dd)
N            3.76316194993564        2.94178688090731       -0.97093798212340
C            2.86680377458507        2.26657831407724       -0.73664127676253
C            1.70379424123635        1.47512130890431       -0.55594402846040
C            0.53918195494408        2.13417140755641       -1.00923425024399
N           -0.68567677466452        1.98415532031289       -0.64524408555874
C           -1.48702868722153        1.08487206349419       -0.16684141822313
C           -2.76690060754935        1.41924257113119        0.33932104646134
C           -3.21444910210501        2.69075565668366        0.70095531475891
N           -3.62753997910090        3.71495939123612        1.01838427606299
C           -3.56095399655148        0.25363068593716        0.36268935353504
N           -4.83626184828505        0.17043506986554        0.74945797802507
C           -2.76964038662836       -0.83933026861109       -0.10441413740990
C           -3.33008849227143       -2.11444996459881       -0.20343904020033
N           -3.92891070889541       -3.09579699752687       -0.23223064705429
C           -1.45304889727246       -0.38862265474203       -0.32923139927921
C           -0.34376767067308       -1.22704143059982       -0.46151391894559
C           -0.66022466301943       -2.59152452455519       -0.71279419622469
N           -0.86926414485588       -3.68153452718051       -0.99993997089597
C            1.02799989101422       -1.02495401391942       -0.19051662246112
C            1.84694729350851       -2.11657828433530        0.09388367131823
C            3.10988686123257       -1.67451958429713        0.52268947246008
N            4.12826585908458       -2.43434894300046        0.93684983305119
C            3.12045127340390       -0.25486204056165        0.44705782710473
C            4.22693420984506        0.49372531343959        0.85574915795562
N            5.17460933895160        0.99279311521208        1.27329964521213
C            1.87586713024151        0.18920603230934       -0.04165216435484
H            0.70291712913908        3.01073731491411       -1.63198869936792
H           -5.32119774222094        0.98896800962168        1.07646175361623
H           -5.32817065829203       -0.70515835359395        0.67988320625657
H            1.54596054138447       -3.14634496968039        0.05700052502169
H            4.05240837705927       -3.43640709478444        0.93770722250544
H            4.98535000403572       -2.00357413260250        1.24184862113261
