24
 energy: -49.330066833251 gnorm: 0.000944301112 xtb: 6.6.1 (8d0f1dd)
N           -4.83099264327458       -2.08677522560190        0.80547788135127
C           -4.17839845334160       -1.17670309592071        0.55503329930124
C           -3.38536225764059       -0.06042316315788        0.26171422804349
C           -3.80130254619599        1.27001455053166        0.24710976112521
C           -2.73123292438006        2.08965847939962       -0.11733153370373
C           -1.59672555952713        1.30844358789048       -0.35827335628462
N           -0.42143713559001        1.85346688343848       -0.51052839993993
C            0.80563108078021        1.49916101446341       -0.38428105632458
N            1.75919842667368        2.46669850180378       -0.46949132157974
C            2.88498319000975        1.97390415125676       -0.02938094694272
C            2.78726546180538        0.59097611769354        0.31157300355051
C            3.81499788637096       -0.16072280439177        0.88851052026525
N            4.67670564096404       -0.72138096242236        1.39908629103662
C            1.47185117391213        0.20602800700535        0.01948689587269
C            1.07321327468634       -1.11128930115887       -0.25574759856373
C            2.12520247984997       -2.05842770740662       -0.37703540322971
N            2.94419065641012       -2.84418557913836       -0.53374912927471
C           -0.19119734197831       -1.66624206378103       -0.52600539180446
N           -1.38885414076137       -1.24137071924215       -0.26062595499915
C           -2.01480443610132       -0.12419701761331       -0.14716037827978
H           -4.79732456808445        1.60358221608246        0.47614774340156
H           -2.75057870788079        3.16028456869001       -0.19202599925030
H            3.76844096450057        2.58155701042936        0.04963929579709
H           -0.17870563490647       -2.69824645875952       -0.86978607067517
