28
 energy: -56.246296049507 gnorm: 0.000567446406 xtb: 6.6.1 (8d0f1dd)
N            3.11779873181178       -3.81700669292839        0.32814842116672
C            2.36254070394146       -2.95392319614777        0.29182143393361
C            1.42099041700965       -1.89567927386284        0.26857408248163
C            0.11859723381721       -2.30571687505387        0.60306264730355
N           -1.03914494995566       -1.78829953041087        0.34860439969429
C           -1.57076230683029       -0.63241581350516        0.10322733366052
C           -2.92085233234867       -0.46616042503960       -0.27581919111570
C           -3.83272966840780       -1.42881498678807       -0.69921933450438
N           -4.62520249946677       -2.17878131095901       -1.06178670740036
C           -3.22038231579806        0.90587239304918       -0.06511112611623
N           -4.39651376795971        1.50539125014694       -0.23979657564998
N           -2.14409450641065        1.59777463636505        0.36036037691439
C           -1.10856602346114        0.76421196518185        0.39230765447931
C            0.18107419329401        1.29224171346132        0.48073509012933
C            0.20603069289842        2.70339404018037        0.67873101495976
N            0.21497311366254        3.83071294907633        0.87953173386129
C            1.44091176569772        0.75133695803043        0.19046895222255
N            2.42974555505661        1.62491952564658        0.02761506258759
C            3.53615283400925        0.94016003560942       -0.33761654372934
N            4.67325721531678        1.58567590424864       -0.59846986948146
C            3.29223093443815       -0.44691381159776       -0.38506476257526
C            1.96184600646774       -0.63461085759268       -0.03298065323356
H            0.04400494670184       -3.30575081727078        1.02705401121186
H           -4.47718032326537        2.48266258226904       -0.01671223451598
H           -5.18987933297458        0.99111838446756       -0.58171659843326
H            4.68905963902639        2.58635896892244       -0.49972959261375
H            5.50410574345475        1.08933567837876       -0.86607751237684
H            4.00603013976424       -1.20964599366691       -0.62513246736605
