24
 energy: -49.337224407045 gnorm: 0.000892363030 xtb: 6.6.1 (8d0f1dd)
N           -2.79135764517675        3.22919272505735        0.23123660932373
C           -2.55947214410332        2.11247939850581        0.09926499805127
C           -2.40351648551961        0.73532728584675       -0.09924479104519
C           -3.41572934900655       -0.04807599014429       -0.71998844727108
C           -3.01591821565360       -1.35816587741707       -0.79153456082368
C           -1.75796938163693       -1.48354041850239       -0.14665590212916
N           -1.33894634241114       -2.60508517253537        0.33511732956077
C           -0.22307367678025       -3.00626284306604        0.88292519329754
N            0.97103330640869       -2.75238666392039        0.44655255457817
C            1.53724618119258       -1.71782922225892       -0.08956236754593
N            2.73557456127673       -1.84264078235019       -0.69378842490857
C            3.26253161706278       -0.64064514342063       -0.77303321487178
C            2.42187762683226        0.37464936110808       -0.24107476704690
C            2.77560317671081        1.72724673356220       -0.23395094993330
N            3.14684669357772        2.81291359295856       -0.27558700473573
C            1.22720277774664       -0.26905364117982        0.13594846715859
C            0.00410004476237        0.37525089928838        0.38834542067104
C            0.12695616599331        1.75352613663447        0.72488394939275
N            0.25098208923067        2.82153503748384        1.11817755381841
C           -1.29648995072271       -0.09095428450841        0.17928057763552
H           -4.34749201658893        0.35622192648735       -1.07179273915643
H           -3.57865445278629       -2.18694517751362       -1.17398806946508
H           -0.31043802684125       -3.79809981686707        1.61982208082594
H            4.23451363032799       -0.48780796334912       -1.20620359908289
