26
 energy: -52.012955513531 gnorm: 0.000834381294 xtb: 6.6.1 (8d0f1dd)
N            5.04775184951597       -0.03131478823047        1.76299164319777
C            4.12064852230185       -0.43626021614601        1.21749070660337
C            2.99319497225426       -0.93180051738171        0.56101468019918
C            2.80636678167712       -2.23568262876446        0.08447975313134
C            1.56926452471466       -2.36032529196243       -0.54170989439587
C            0.88082656493279       -1.14560282201706       -0.45765247187672
N           -0.40426149285528       -1.05979580344896       -0.63945611655231
C           -1.29288954369548       -0.15555928789109       -0.30768766732311
C           -2.65633411441659       -0.45541281128770       -0.18568105095198
C           -3.34467112025321       -1.60928126439118       -0.54202913437991
N           -3.97537764458479       -2.53077244197229       -0.81839668323803
C           -3.25304367235037        0.66711184695145        0.48636896834829
N           -4.53490924967142        0.76078616749379        0.83332989957370
N           -2.37828596674379        1.63931451426140        0.74353210113536
C           -1.20021335705068        1.26888922208491        0.22724800286709
N           -0.24802471993629        2.12882888340975        0.08106999881468
C            0.99223142821745        2.01437249737822       -0.34870987724955
N            1.46146005624909        3.01721972315445       -1.12006411363909
N            1.89286220641864        1.13234645726389        0.07144676236791
C            1.88243759336607       -0.14902066405365        0.14037041828586
H            3.52545196818824       -3.02750510525580        0.20171108711561
H            1.15827157038413       -3.26086551334849       -0.95487050911387
H           -4.84713507372203        1.58333258653034        1.32007253360057
H           -5.18209200068968        0.02614883494059        0.60414845754058
H            2.45479573770753        3.09936341757760       -1.25335115743639
H            0.87872982014422        3.82576528840795       -1.25272616282150
