29
 energy: -55.965293343986 gnorm: 0.000698555496 xtb: 6.6.1 (8d0f1dd)
N           -3.45244774775616        2.91027643720277       -0.01843443813876
C           -3.14184441790936        1.80364146907069       -0.01172661768803
C           -2.87953863753618        0.43288750681869       -0.00134778844824
C           -3.89708703645399       -0.55803116319045        0.00691467084979
N           -5.21420996715555       -0.30698927503892        0.00612843270583
C           -3.27485500805054       -1.81477405927687        0.01571748580187
C           -1.88691742853419       -1.67171981080179        0.01346350698313
C           -1.05236110843131       -2.78373320441000        0.02077909965070
C            0.32825629423387       -2.97405740522642        0.02077662089519
N            1.38870170636667       -2.20565475277129        0.01445597280939
C            1.60102099276264       -0.91583946239397        0.00501511839860
C            2.93946758631382       -0.45515406583627        0.00094736342640
C            4.08977228852887       -1.24704432742624        0.00641633382344
N            5.07406714590963       -1.84070624930641        0.00954915278490
C            2.96379944737773        0.95919403889965       -0.00946252014242
N            4.05777882772670        1.72915114733106       -0.01567572299380
C            1.62412050826022        1.41924182704978       -0.01183861388878
C            1.28021329274707        2.77324598970830       -0.02044950942070
N            1.08014865468549        3.90483256725162       -0.03127414749426
C            0.73935962776718        0.31714646097216       -0.00344147054551
N           -0.54652141137900        0.54533942224799       -0.00400519677418
C           -1.61602752496173       -0.19780059058982        0.00237869074371
H           -5.88027265539089       -1.05848179965871        0.01218763799914
H           -5.54127743287446        0.64401166392349       -0.00069379787439
H           -3.79564282245113       -2.75546534701112        0.02307908355624
H           -1.60336006810076       -3.71902377640839        0.02802013122989
H            0.62414514562730       -4.02289885699896        0.02787184466117
H            3.96838728092053        2.73113807974775       -0.02298626923948
H            4.97146086305746        1.30850858032311       -0.01320044207019
