27
 energy: -47.734548246720 gnorm: 0.000761669212 xtb: 6.6.1 (8d0f1dd)
N            2.51109977250587        3.54034991580997        0.00188644923757
C            2.56063074934229        2.39213300916546        0.00219126087139
C            2.63467511269035        0.99886292611556       -0.00122551504998
C            3.81411905850937        0.22719096199910       -0.00955600396627
N            3.55846456059137       -1.06401162531352       -0.00997178572834
C            2.20861770919865       -1.22914966325185       -0.00284455627039
C            1.77344658760183       -2.54224861952287       -0.00027934141900
C            0.53523969156530       -3.17462604646549        0.00410517868623
C           -0.77675452863704       -2.74318094016271        0.00484264363489
C           -1.43764912003388       -1.51165081323923        0.00487572091274
C           -2.83525284904526       -1.49038000622960        0.00173305397822
C           -3.30707154675012       -0.17034775607002        0.00441825188790
N           -4.59142210589948        0.23315059521081        0.03037636298267
C           -2.17681483226122        0.67820444309878        0.01066519469166
C           -2.25919892272238        2.07093396392518        0.00783226302319
N           -2.39097727200369        3.21336653577772       -0.00043591538978
C           -0.99245966779643       -0.10677234028290        0.00949761947950
C            0.23586155146097        0.52120818576084        0.00992745119289
C            1.55536135170039        0.08196846515252        0.00243922459789
H            4.82382264519395        0.59651042119372       -0.01485062051318
H            2.62075429828625       -3.22019744022259       -0.00311622769563
H            0.62155715438333       -4.25595066525793        0.00548437633793
H           -1.48771864293637       -3.56492485566674        0.00508429464579
H           -3.46349394347281       -2.36254766367917       -0.00214198788304
H           -5.33349123221514       -0.43571404939217       -0.07027468453686
H           -4.80663255982940        1.21224063270356       -0.04627660449749
H            0.15696820987331        1.60766201934355        0.01477008408955
