27
 energy: -46.930315600382 gnorm: 0.000969716411 xtb: 6.6.1 (8d0f1dd)
N            3.20038188451162       -3.39712777531499        0.07701326117922
C            2.93941580820901       -2.27770137782910        0.04296213196600
C            2.64231433813098       -0.91672895480389        0.00313593706473
C            3.58008182992863        0.13979858705335       -0.04620953888095
N            3.00329093271488        1.31757446807838       -0.07154945346850
C            1.64700209908139        1.12250918110703       -0.04101222895171
C            0.90293950634119        2.27441875021939       -0.04354208883617
C           -0.46262587590309        2.62277638000050       -0.01006886222751
N           -0.68086143899179        3.98214445351292       -0.04765898332133
C           -1.61576230974463        1.84654076224594       -0.00110984411912
C           -1.92810136057121        0.48877542717362       -0.00386762821176
C           -3.25459257123157        0.06240787181651       -0.01202031464455
C           -3.23788156075616       -1.34569032105078        0.00986156319100
N           -4.29853609056927       -2.17527477243265        0.04928449852782
N           -1.98712687329665       -1.82328028495796        0.03490468722056
C           -1.14506068566945       -0.77198147257208        0.02365652078571
C            0.20011327333464       -1.07497383465291        0.03444238490580
C            1.36324225009227       -0.31777182343862        0.00443064107429
H            4.65136188154094        0.04273916229245       -0.06236890368620
H            1.56118014611496        3.13875436079985       -0.07657555893239
H            0.08943445094802        4.60208284801465        0.12999454808781
H           -1.59966057951907        4.33600013291325        0.15323509510245
H           -2.51854656696082        2.45440169569824        0.00289602754936
H           -4.13013250603892        0.68295690365283       -0.03133589464449
H           -5.21793752350886       -1.82465127238329       -0.15018358226993
H           -4.12045489184430       -3.15934967944276       -0.04915976747829
H            0.36947324485725       -2.14777002210002        0.06215440421810
