22
 energy: -45.082832385874 gnorm: 0.000711271476 xtb: 6.6.1 (8d0f1dd)
N           -3.32808590438232       -3.06589558680633        0.02676415350096
C           -2.51523142489030       -2.25721899714685        0.02618255888465
C           -1.50253485311948       -1.26212635499401        0.04204376335634
C           -0.22105137458658       -1.78338205268118        0.33961800300958
N            0.96981927139075       -1.30041148489953        0.21661900170084
C            1.55177877989547       -0.14207338700601        0.19741745846217
C            2.92573714076744        0.02565111999468       -0.11589322695707
C            3.86926621230337       -0.98950813906095       -0.29788023771016
N            4.65013383518001       -1.81380784908682       -0.46372325013021
C            3.15996688645006        1.41104754617807       -0.11969536652345
N            2.05898822288883        2.11690605263709        0.09062085312145
C            1.04114370446047        1.27541360683152        0.30227381689275
N           -0.16178775231058        1.74372219779278        0.41401938605480
C           -1.37266341993282        1.35954173825532        0.27868192631167
N           -2.38342269478281        2.24412589523709        0.42398714007590
C           -3.47848139233842        1.68992414313196       -0.05747665058489
C           -3.29377239960201        0.35507363976099       -0.47039174210236
C           -1.96929909138542        0.03663165224687       -0.19548466715842
H           -0.21596133095697       -2.84552789873460        0.58052374841760
H            4.10511955636242        1.90236184263633       -0.26519498933396
H           -4.39400868415076        2.25307707196054       -0.09551338652133
H           -4.03611190865956       -0.28902270284709       -0.90064963876738
