24
 energy: -49.338067651301 gnorm: 0.000539276443 xtb: 6.6.1 (8d0f1dd)
N            3.45358673471614        3.55708357598366        0.15556407722862
C            3.10459715814220        2.46827864435973        0.05347971366427
C            2.68365494103183        1.14184268518501       -0.07285667290197
C            3.49609047263530        0.03951044922458       -0.46595699423737
N            2.81788803430653       -1.07562240714705       -0.51392229710499
C            1.53427515866044       -0.80977387293315       -0.13137483617403
C            0.73069892316341       -1.90609270562418        0.11293294516507
C            1.35134372348297       -3.16985752633699       -0.08564494904017
N            1.80180946208225       -4.21446922481721       -0.21398259288954
C           -0.60697593279526       -1.99641874283585        0.60810669871015
N           -1.59677251735588       -1.20392292194636        0.43953552099054
C           -1.84808212120870        0.03485179587461        0.13959554909491
C           -3.12778008385737        0.51768448402442       -0.22302525075753
C           -4.23733157190788       -0.24143593098600       -0.60269013744029
N           -5.15413499719994       -0.85534133976768       -0.91870237355340
C           -3.06524735900102        1.92053380299476       -0.08005521193151
N           -1.87882877743864        2.34251075722986        0.31414046038833
C           -1.05199781631680        1.27782874202715        0.36667566617785
C            0.30512247896155        1.48771069159618        0.38791689054543
C            1.38685628903772        0.64009002132341        0.12745698637279
H            4.54318871492361        0.06915175757758       -0.70614979157537
H           -0.86699385905129       -2.93747033706609        1.08736725743955
H           -3.87221110573759        2.61290247569012       -0.23918196882479
H            0.56903157782870        2.53908311737447        0.46042499325410
