25
 energy: -53.068185435979 gnorm: 0.000840108286 xtb: 6.6.1 (8d0f1dd)
N            3.97476498685258        2.20354168476549       -1.00440544324716
C            3.00412900773085        1.69523969302279       -0.67054080779452
C            1.75883921386936        1.11553747878537       -0.30955109415198
C            0.68400736132505        2.00193478698604       -0.35057854988161
N           -0.49166844351267        1.95577576769444        0.22323571604650
C           -1.47948530906832        1.21526823257455        0.46731366206590
N           -2.65240302230966        1.53561013191559        0.99619828191830
C           -3.56570562768818        0.72708416999620        0.44236911247127
N           -4.86236930799535        0.87881350859809        0.67246697754435
C           -2.99062616500333       -0.30511614406187       -0.38660346741563
C           -3.72090198550090       -1.22987101999132       -1.12712664529764
N           -4.38122022896511       -1.96050823524594       -1.71962711965388
C           -1.61279162222082       -0.20410843157767       -0.20137315385888
N           -0.66992102959419       -1.04615332660610       -0.16485944927569
C            0.58824625303855       -1.18528238057359        0.11211420589121
N            1.01435588195741       -2.39355815174008        0.53799582480835
C            2.32543237499635       -2.34031580124520        0.62959828394165
C            2.85370911708369       -1.06786510903989        0.28665795367833
C            4.21244678863094       -0.73707329091329        0.33199917604922
N            5.33785764368748       -0.52297835622654        0.40044769369747
C            1.75254235921360       -0.26043909071096       -0.02002444155669
H            0.86955092195784        2.95806102282599       -0.83533384258361
H           -5.53659574894761        0.28790878781325        0.21513602448099
H           -5.16517734075577        1.59333654264120        1.31315115233097
H            2.89255603681774       -3.19570871968554        0.94871743438561
