25
 energy: -48.274773261755 gnorm: 0.000856004536 xtb: 6.6.1 (8d0f1dd)
N            2.43347974686547       -3.05995630265064        0.50725207220811
C            1.58592248623853       -2.30280688464414        0.35377277983881
C            0.48422893772467       -1.41604974707250        0.24175674870989
C           -0.74739161643395       -2.08045373679551        0.37814053011785
N           -1.94181896200282       -1.75411929021878       -0.00371129408661
C           -2.65958065517775       -0.69167364914121       -0.14930068402564
C           -3.98384032185786       -0.69818163086986       -0.64474035788020
C           -4.52626582673992        0.52382307401788       -0.29993869716388
N           -3.64903056286344        1.34490648704959        0.30777399400587
C           -2.47652681953183        0.71621180597466        0.35550919040525
C           -1.32324865309103        1.44559076526799        0.57237077543682
C            0.02059248504534        1.17225199978120        0.34631697427676
N            0.83910814125710        2.23483228898785        0.33105624395089
C            2.06180669016527        1.82019156455080       -0.01636167503120
N            3.08658862737278        2.66090567134375       -0.15939263429317
C            2.09819173741655        0.40326094312321       -0.19811554750664
C            3.25345262583460       -0.26914919132350       -0.59598976471455
N            4.25509820017380       -0.69877241957303       -0.96180200262639
C            0.79856338614442       -0.06069945699940        0.05443606609915
H           -0.67692100110141       -3.11764570855995        0.70235863886144
H           -4.47436847295781       -1.52636536409312       -1.11484377767102
H           -5.53619440258857        0.85682434650769       -0.46050547690159
H           -1.50636215612271        2.49589112240846        0.77033386371627
H            3.99343698679617        2.31787763340095       -0.42517583173753
H            2.94018366603437        3.64077010602765        0.00901491671057
