27
 energy: -53.313596170104 gnorm: 0.000719991777 xtb: 6.6.1 (8d0f1dd)
N           -5.48511588403653        1.84469940057187        0.25281388880980
C           -4.67681541275975        1.03332073266384        0.17177151902009
C           -3.68257852372555        0.05626797053868        0.07660797083009
C           -3.87055210547669       -1.33799500068431        0.00758272346446
N           -2.72233684892349       -1.98155741148663       -0.08045920222969
C           -1.72049082287963       -1.07173303768027       -0.06931251513110
C           -0.43720427640924       -1.58931850447223       -0.11081425669507
C            0.84152421419893       -1.05943667646302       -0.05158208259253
C            1.94669517837500       -1.95415705367686       -0.01936506817638
C            1.86082917454690       -3.35326867370433       -0.06567196656824
N            1.79640949123788       -4.49781904463436       -0.10912890778663
C            3.13681566144348       -1.23271976489573        0.08539242815874
C            2.82325438396679        0.12659226503251        0.09080289187455
C            3.83283158925977        1.09025250684428        0.24941999949278
N            4.73980833522897        1.77079682039715        0.42449631438923
C            1.40723055489906        0.29558361337070       -0.00441282025885
C            0.83106148344184        1.56432683383653       -0.09258100826891
C            1.74359537458951        2.65455553051971       -0.24892579232381
N            2.35933313426106        3.60219888770586       -0.43314800711990
C           -0.47597736175901        2.08413143550497       -0.07259331180135
C           -1.74955664912703        1.56167704589227        0.01789079141229
C           -2.28262347313204        0.27665946292269        0.02167690344489
H           -4.80644964025752       -1.86581035666838        0.02074632601031
H           -0.46006035042998       -2.67506469814420       -0.16458152522710
H            4.12579474896816       -1.64660551028596        0.15429039047623
H           -0.47292113221154        3.16919222960754       -0.12145010028252
H           -2.52046936118939        2.32609905158765        0.07247390407865
