31
 energy: -60.201007616388 gnorm: 0.000681423876 xtb: 6.6.1 (8d0f1dd)
N           -5.20385492123215        0.63124955556023       -1.10563876066022
C           -4.15832776623277        0.94955959617624       -0.75264449326427
C           -2.88476956552135        1.40123829662445       -0.39485953930415
C           -2.47799462954596        2.75341748635584       -0.42139460794813
N           -1.21235273408947        2.89583088372862       -0.08817430874653
C           -0.67965337938136        1.66232829900706        0.07830185766956
C            0.66790071315341        1.60725848387703        0.37042334605297
C            1.62189845044955        0.60814899581460        0.24667263599227
C            2.98887798735690        0.93360042821688        0.30851772348084
C            3.54638959316082        2.14738674476462        0.70883189671794
N            4.05888237957394        3.12243903432976        1.03922100924029
C            3.76158725646648       -0.17359918293936       -0.16684537323834
N            5.09885049231270       -0.18662452600019       -0.26500387143406
C            2.87518375078828       -1.19502420126671       -0.48927007239677
C            1.55620498419493       -0.80181436970833       -0.18913345483722
C            0.51987840041632       -1.73591603956515       -0.19024466227880
C            0.92472011597607       -3.02041707221488       -0.64416847375002
N            1.21687245466833       -4.05628003062472       -1.04445731353665
C           -0.82758827128908       -1.74596132652473        0.29302310234115
N           -1.26290395099256       -2.95870857462989        0.72952758696876
C           -1.78025151872360       -0.70879637112198        0.28833177577185
C           -3.07396711131107       -1.11625237419260        0.71174802136640
N           -4.08369479872899       -1.46258466237196        1.13390908020667
C           -1.73295231899439        0.64930410063584       -0.07915952830871
H           -3.08871476829889        3.60019648379559       -0.67584584426064
H            1.07598871241157        2.59013934456354        0.58696129022982
H            5.57377019750249       -0.98656221546560       -0.64331162056392
H            5.63520799337016        0.61724674628061        0.01208415186221
H            3.16464791261036       -2.16145247248726       -0.85580407946129
H           -2.24156344227118       -3.10548324329537        0.91651633208042
H           -0.67090395890980       -3.76833915982344        0.65220749391572
