30
 energy: -60.489739524278 gnorm: 0.000724800832 xtb: 6.6.1 (8d0f1dd)
N            5.42326225906183        1.06061946274604        1.50551200449807
C            4.61546933856938        0.36802233112411        1.07272423153934
C            3.63436388386013       -0.47441205709675        0.54985535610714
C            3.72337826563378       -1.86300936515879        0.33213199214251
N            2.63343143716458       -2.37836386954924       -0.21612848455423
C            1.72930896585611       -1.38477497670254       -0.33669405819053
C            0.41045615056516       -1.69257819187181       -0.57440517550444
C           -0.77523479335525       -0.98909461152195       -0.34684013395901
C           -1.98888998742071       -1.69562234151817       -0.29480512122928
C           -2.19289418937083       -3.03913721569219       -0.61610171600167
N           -2.41877452082954       -4.13574290409353       -0.87566910156880
C           -3.02149737982727       -0.85277333098823        0.21845430000280
N           -4.28896346486057       -1.21645720911368        0.43418346529333
C           -2.45736339847119        0.41212144575303        0.45240726758885
C           -3.21587829508968        1.45379067842463        0.99432637247616
N           -3.94183343675812        2.20293794900780        1.47672590113030
C           -1.09075690652599        0.40434631209471        0.04463583649112
C           -0.38243945141109        1.57741256532178       -0.13788725418743
C           -1.03155577496125        2.81056287268297        0.10399778568394
N           -1.46381916918506        3.86710718902137        0.22857561616371
C            0.97170277661518        1.77872110214581       -0.62617975580050
N            1.19352988927406        2.85705472951553       -1.40574819779787
N            2.01769468563291        1.11726943651304       -0.24967602181352
C            2.36870071117519       -0.09568724327231        0.04626934100612
H            4.56880275174871       -2.48801649491344        0.55829515545408
H            0.26154217853571       -2.74624275217415       -0.79178945365695
H           -4.59229512152391       -2.15301948298329        0.22773816905804
H           -4.93829528812247       -0.56008738413377        0.83471985990699
H            2.14917472240973        3.10508977296470       -1.60500638022317
H            0.47708948210748        3.55216115936981       -1.53487251355470
