23
 energy: -44.020520968919 gnorm: 0.000695436557 xtb: 6.6.1 (8d0f1dd)
N            3.98633799697889        2.24021310745119        0.00874564139013
C            2.98943877012581        1.67474543143780        0.00688865498686
C            1.71635801888559        1.04221091219659        0.00337274606335
C            0.64521242305622        1.95648147862653        0.00424979532056
N           -0.65468175797422        1.87143931279591        0.00228146306995
C           -1.53204832317247        0.89379732239926       -0.00110279245770
C           -2.88192062052702        1.22176762513447       -0.00225512550725
C           -3.66800899267269        0.05015389288472       -0.00597779635742
N           -5.00647277998786        0.00719623031162       -0.00789273251409
C           -2.80742715611766       -1.06308157920183       -0.00732453745051
C           -1.48069650745386       -0.63904540677074       -0.00448797051405
N           -0.53148033192842       -1.53308284782782       -0.00524943344872
C            0.76948229967494       -1.46179200114975       -0.00346565736546
N            1.46772279393751       -2.61153573783924       -0.00504217228255
C            2.74266697499478       -2.25188131899526       -0.00279249388157
N            2.98935867278004       -0.94157894356882        0.00027718754776
C            1.78431219315639       -0.35223551191434        0.00013602579664
H            0.97204717807282        2.99704600770193        0.00723425115112
H           -3.25661761454998        2.22809032498522       -0.00048180414082
H           -5.54372223742328        0.85625873837983       -0.00668022324758
H           -5.48641985605456       -0.87557966182886       -0.01049623665034
H           -3.10610508406377       -2.09408927415620       -0.01010383842773
H            3.53951139706293       -2.97294148885218       -0.00339386498052
