25
 energy: -49.059475895736 gnorm: 0.000765102040 xtb: 6.6.1 (8d0f1dd)
N           -3.56506205063447       -2.11776243828332        0.98722481201122
C           -2.55578085578176       -1.70046373557401        0.64012057283488
C           -1.25742343081135       -1.23184320635011        0.30605944247266
C           -0.27819444134279       -2.21824356868302        0.41566565981329
N            0.93942146692807       -2.27813845634816       -0.05418745427699
C            1.93733444151916       -1.49689470431354       -0.25121087227375
C            3.18036994042242       -2.00965269231431       -0.74427536542010
C            4.16229204452611       -1.08588625969233       -0.50490592461314
C            3.58993359940044        0.07586350930854        0.06721545746906
C            2.21570187399357       -0.08802432527617        0.17272581648088
C            1.31912539702158        0.97811521349489        0.32972047316979
C            1.93291185069681        2.24494424757322        0.56698535402939
N            2.46055738066136        3.23326117714690        0.80181475086685
C           -0.05309117455506        1.08332083266077        0.10802386685006
N           -0.52588706108038        2.34887827618107       -0.03552704594572
C           -1.79977941852744        2.28048371347755       -0.34238063206061
C           -2.26940542807703        0.94293490249746       -0.35090681114563
C           -3.57468439641371        0.56226408645745       -0.67831858164627
N           -4.64661454130300        0.30714239110930       -1.00032612569905
C           -1.15972926905143        0.13002532405469       -0.05206299797095
H           -0.61974841867775       -3.17536924743039        0.80464679091981
H            3.29331831914756       -2.99408082234156       -1.15528255433045
H            5.20924852357866       -1.20689265250953       -0.71432859265816
H            4.13471788498550        0.95946031578973        0.34533548571563
H           -2.37352285502474        3.16402861406808       -0.55201024898510
