23
 energy: -44.037159197572 gnorm: 0.000673961379 xtb: 6.6.1 (8d0f1dd)
N           -4.50062415261089       -0.78974492343246       -1.14404042810150
C           -3.61163415627638       -0.16802627984961       -0.76553779774370
C           -2.53363443419891        0.58589849319176       -0.30129394727748
C           -2.53150618308674        1.95026254483364        0.04806797665100
N           -1.36299480346234        2.37048977281062        0.49951509144767
C           -0.49302625920986        1.33975453145128        0.41979381297048
C            0.85039636324690        1.59181924250791        0.52282571020832
C            1.96513226384753        0.82288494517239        0.17101881763022
N            3.15259425347058        1.41792457088349        0.10914165199968
C            3.99664555312842        0.49021422049265       -0.38755485681114
N            3.47542249366904       -0.68060959873424       -0.65871214097695
C            2.16021302646520       -0.57975158877129       -0.29475987231155
C            1.41546334046324       -1.72048405633244       -0.25621543135910
C            0.07736199487606       -1.94293299243117        0.19734975522479
N           -0.20179977897361       -3.17737230356489        0.67190265682537
N           -0.94935015130051       -1.15590763898604        0.06988690826342
C           -1.23639046813780        0.10766084136455       -0.00010166202994
H           -3.36892586778897        2.62262200483635       -0.01460402077271
H            1.09829245501258        2.61922506674920        0.76508288747414
H            5.03618647390035        0.70992475528771       -0.54810707524940
H            1.95075602756433       -2.60634983775204       -0.57887786169137
H           -1.15541631246536       -3.40380655097325        0.89780837324351
H            0.49245400306704       -3.90256095615327        0.67597936618515
