28
 energy: -51.442363452356 gnorm: 0.000676000054 xtb: 6.6.1 (8d0f1dd)
N            3.93553289034507       -2.42146128742999       -0.06554859225319
C            3.28628564186316       -1.47363966912754       -0.04058817563578
C            2.65544810760493       -0.22721193732110       -0.02537531129104
C            3.40192716159690        0.98141173193666       -0.05878347977862
N            2.63714877819457        2.04019574148370       -0.04987426791107
C            1.33191620880083        1.61830663248631       -0.01876377800780
C            0.42699721107802        2.64603602976930       -0.00155776728082
C           -0.97508751437153        2.80829715623987        0.01303298342149
N           -1.37324684260442        4.12239779915968       -0.00548780359071
C           -2.00487460283954        1.87866827635976       -0.01105624639091
C           -2.10775027131564        0.48908353242988       -0.02414819953732
C           -3.35605809692231       -0.12730737730932       -0.05148492423237
C           -3.13623369971971       -1.52057520126038       -0.02304685350503
N           -4.05157528667248       -2.49908509855919       -0.02393583915157
N           -1.82868514543417       -1.80375215033592        0.02470200561540
C           -1.14930875140467       -0.64422908470832        0.01848800132630
C            0.23807962733186       -0.77238954282229        0.04384432081459
C            0.61180946072640       -2.14732986571868        0.12018512272996
N            0.89882024128497       -3.25356326120308        0.20027780346337
C            1.29877368477595        0.14539832267882        0.00086933053628
H            4.47384676523823        1.06032428768690       -0.08878363294019
H            0.95856712899951        3.59410382604528       -0.01070916996732
H           -2.33965405159691        4.35075225676469        0.14595928186965
H           -0.69813526753628        4.84565302464091        0.16473189171539
H           -2.98698147267961        2.34587401402048       -0.02163269992019
H           -4.31115090245884        0.36029710038267       -0.08514291905897
H           -3.72696300471317       -3.44984009436974       -0.03598056072726
H           -5.02884631137014       -2.29760148021968       -0.12458237341134
