26
 energy: -43.206242091565 gnorm: 0.000412799874 xtb: 6.6.1 (8d0f1dd)
N           -4.70928048382003       -0.85213592545246       -0.03739838298618
C           -3.77491220988099       -0.18065529405933       -0.03146606898663
C           -2.62854515928958        0.60996171472549       -0.01949434672989
C           -2.56703856000381        2.01539678979654       -0.00397181383352
N           -1.32530954656004        2.45388312171253        0.01311157761947
C           -0.49558707192311        1.37469093808610        0.00671287669090
C            0.85674438482718        1.65676762577104        0.02408554691500
C            2.01416723053849        0.89575623398986        0.01405431057382
C            3.26812820451852        1.51580638435873        0.02489782804189
C            4.27751131311250        0.54823620919040       -0.00630344545446
C            3.68932313466529       -0.69675747811873       -0.03460653635360
C            2.27374380648555       -0.56177078261404       -0.02069214263830
C            1.49817549091867       -1.69358626788253       -0.02830933946852
C            0.12297178915207       -2.01554090918553       -0.01390417192123
N           -0.12817744589275       -3.36968119077155       -0.06156301182987
C           -1.01566505777659       -1.21676657762569       -0.01464010252751
C           -1.28507031397704        0.14621998029115       -0.01425599309082
H           -3.39959612699185        2.69593538468459       -0.00424120316286
H            1.03336200567460        2.72804270339993        0.04472177710969
H            3.42202154060645        2.57890935069588        0.05128383945491
H            5.33365134429561        0.74825633990731       -0.00802624237839
H            4.20608250559348       -1.63889144293050       -0.06257341753507
H            2.10966891534716       -2.59394632485038       -0.05163357091132
H            0.61272661036512       -4.01607426244432        0.14366329066958
H           -1.06483565192908       -3.69480102577853        0.10329221060318
H           -1.93279935825589       -1.80359266179592       -0.01990483027021
