28
 energy: -56.243437990097 gnorm: 0.000701629756 xtb: 6.6.1 (8d0f1dd)
N           -4.98696883732772       -0.16398434250219       -0.99523985545873
C           -4.02279188987842        0.34349579019552       -0.63250887889851
C           -2.87142981938917        1.04825496371116       -0.26627692796521
C           -2.79945080682090        2.45943043899610       -0.22669533709458
N           -1.59318475140429        2.88883149918384        0.06761922383479
C           -0.77121333413604        1.81450920863206        0.15389881834478
C            0.55111682137365        2.08031020763597        0.40171747508831
C            1.70590278206676        1.31084250757942        0.27544180384880
N            2.88517461298581        1.91706884609153        0.34928863330260
C            3.79861819396850        0.97366112280977        0.00508456733295
N            5.09992500260098        1.23626291125453       -0.04068893266337
N            3.28517210522657       -0.22747362629572       -0.27938488376015
C            1.96038672911456       -0.10355526092868       -0.09685239549968
C            1.19755891750236       -1.26458947195881       -0.19915197934927
C            2.01818424998278       -2.36525763539830       -0.57575707354506
N            2.63858550553369       -3.27479892961142       -0.89957265513543
C           -0.14633981759934       -1.61233137646968        0.11090704511540
N           -0.35577847902021       -2.93926331046557        0.29618641907377
C           -1.29642051780135       -0.78783899247404        0.19995383070752
C           -2.46455224471385       -1.50935093398583        0.57153191957385
N           -3.35560776015829       -2.11259968511578        0.97196248335270
C           -1.56458060833309        0.57277912034717       -0.02900999804268
H           -3.60804797849421        3.14282448806302       -0.41333505476041
H            0.75377344134163        3.12625261984874        0.60209432978798
H            5.73703513008792        0.51260866408543       -0.32267703893751
H            5.42489936483500        2.15754021894443        0.19235637420457
H           -1.28660541742602       -3.30035784979831        0.42372667325052
H            0.40742713679689       -3.58878067846935        0.20489864019902
