23
 energy: -48.829586607005 gnorm: 0.000372154075 xtb: 6.6.1 (8d0f1dd)
N            4.72517136677853        1.75686766832698        0.55453719458727
C            3.66350850466384        1.35732456230406        0.39661232394569
C            2.33160786571879        0.90047571155147        0.22796797196271
C            1.32140554333765        1.84693059286404        0.42260764456519
N            0.11697747014850        1.88514674413864       -0.06879265250141
C           -0.93000790745480        1.23589855681067       -0.33023436810105
N           -2.07172828058279        1.66752792669814       -0.83910120000848
C           -3.04735828585096        0.89281649775508       -0.33086959101255
N           -4.32601384220948        1.15684065243685       -0.56132231977044
C           -2.55701885101207       -0.21658450975118        0.43931459172973
C           -3.35846195624848       -1.13295522360317        1.11361693092709
N           -4.07637011050238       -1.84762275991844        1.65672538292890
C           -1.16960842233064       -0.20401471824624        0.26804036496571
N           -0.30421101328595       -1.12046439744470        0.17919194595289
C            0.94610557647471       -1.32174859142352       -0.11357974764470
N            1.34134222887426       -2.51677074365797       -0.57421864157242
C            2.66168662065509       -2.42951322163142       -0.68079586631054
N            3.20297405990121       -1.24679464124986       -0.38368083609278
C            2.18144553572137       -0.46397084769710       -0.04457407381805
H            1.59402133204504        2.75412573722469        0.95735594657339
H           -5.04819276621213        0.59510593071492       -0.14223849141066
H           -4.56479389156779        1.92413113345897       -1.16697604966373
H            3.26219926803910       -3.26256916464763       -0.99495877414393
