26
 energy: -52.783817507919 gnorm: 0.000910025220 xtb: 6.6.1 (8d0f1dd)
N            4.88915636616079       -0.28601617841580        0.14964858466816
C            3.85960414251004        0.20454594916933        0.01756133876941
C            2.66257593593554        0.89716420050581       -0.18096537745199
C            2.59349371062847        2.19084799936241       -0.76292587461870
N            1.36742039091951        2.66412348718621       -0.83513275666912
C            0.55077168305586        1.73084825976143       -0.29935982857140
N           -0.64617143369535        2.06493731866965        0.04658882225965
C           -1.78402702064265        1.56703229769712        0.41303612075582
N           -2.55979197095071        2.33322601107520        1.20300636891197
C           -2.34691713005273        0.34467163753401       -0.10858539829804
C           -3.73376325996203        0.41144022570982       -0.36837192788039
N           -4.86387126595740        0.49858342091293       -0.55141401950311
C           -1.71763842899974       -0.87003928581708       -0.32397844666499
C           -2.42002778810272       -2.03928431782617       -0.69509833772411
C           -1.57445754081899       -3.10466663393875       -0.44740584337582
N           -0.38053387872829       -2.71306955417472        0.02018626133246
C           -0.36983264183947       -1.37890749144244        0.06950576440876
C            0.87387330722777       -0.78220987682113        0.31942213911468
C            1.86006379849213       -1.72855455238506        0.72610617688656
N            2.64248603485030       -2.46246493433441        1.12476350481329
C            1.32887122465606        0.50815424138581        0.04932063373272
H            3.42944245397203        2.76479339131918       -1.12044171327039
H           -2.23300226641576        3.25335295287184        1.44801550689601
H           -3.52590464489102        2.09848351954821        1.35910065093021
H           -3.43226611975033       -2.07990226080706       -1.04544727068927
H           -1.77184151849471       -4.15064093262675       -0.59285540746157
