27
 energy: -51.725378170624 gnorm: 0.000805395268 xtb: 6.6.1 (8d0f1dd)
N           -3.61307858084924        3.02930052547020       -0.15737297327571
C           -2.68486017788806        2.36455085143366       -0.05140088111568
C           -1.49176912813535        1.61208150101425        0.10386060611166
C           -0.37702240455789        2.41211351188268        0.49275951194777
N            0.88726935859016        2.26897254906426        0.35426468734183
C            1.73697579430322        1.30347157123221        0.06663285098623
C            3.04592730331785        1.54260765650757       -0.31073138217872
C            3.73112330013370        0.30588211225873       -0.19357126939795
N            5.02923228700523        0.08169757220562       -0.42606494785561
N            2.92676188422906       -0.68132345457820        0.21853586332030
C            1.68374982330471       -0.17625585996478        0.30150766528591
C            0.62614055458094       -1.06180918212598        0.41758800237571
C            1.05134572473135       -2.40692556532492        0.59968011284305
N            1.35364170231828       -3.49800712517237        0.78071458270805
C           -0.76853036918068       -0.92564923257490        0.20297428981983
C           -1.60932228223117       -2.01336344844049        0.09684032252969
C           -2.89657220964697       -1.51012145751578       -0.25890215090309
N           -3.99827696313465       -2.23196843434407       -0.48245188306557
N           -2.89545751612687       -0.18344279083929       -0.35970723775843
C           -1.65229748358925        0.24740127066036       -0.06022543115869
H           -0.65350865947815        3.38710182988400        0.89405674045568
H            3.47152248256227        2.48630964569051       -0.58553974586010
H            5.39195040833097       -0.84168358479880       -0.26691893906683
H            5.62739043220242        0.80919395820111       -0.77160051298992
H           -1.35413207566768       -3.04685966321006        0.22383249245807
H           -3.99812268264463       -3.22784752750132       -0.35744872117486
H           -4.84917997377943       -1.74999038531491       -0.71459295968237
