26
 energy: -52.005814122602 gnorm: 0.000794684531 xtb: 6.6.1 (8d0f1dd)
N           -4.16422852459274       -2.61913877105420       -0.37597376457407
C           -3.16962126856515       -2.05495678961989       -0.29564132591228
C           -1.91536498559945       -1.40223463270996       -0.21372827163312
C           -0.78830506418864       -2.22354353836837       -0.39190861516334
N            0.41451795105647       -2.08234350596776        0.06485540314102
C            1.34158195038623       -1.23990183092093        0.28140709633510
N            2.52254155629352       -1.50330633482571        0.83240650757898
C            3.38320452479000       -0.57767429797282        0.36973180968555
N            4.67956466809693       -0.63848559737060        0.66730268696529
C            2.76209975566978        0.43589354053885       -0.42121049576044
C            3.42532077916146        1.49628033519398       -1.02440659922556
N            4.02686622408088        2.35111303138158       -1.50632750679402
C            1.38058625568323        0.17499355422323       -0.34428828715935
N            0.41434158308250        1.00549198778189       -0.39998812636005
C           -0.88024186127383        1.02688966203443       -0.15283389205053
C           -1.53445956021951        2.21938051427533        0.11423173862056
C           -2.90091850821782        1.90258663545520        0.28700590025924
N           -3.90784819143152        2.74749913609680        0.52496620280784
N           -3.12954579669267        0.57934509680297        0.18737501027911
C           -1.96496710016832       -0.01566198379826       -0.06209450640320
H           -0.95950949493511       -3.18494271860042       -0.87174608756107
H            5.00738298815469       -1.37986793565967        1.26177454255553
H            5.32423531673796        0.02615178873063        0.27584930871346
H           -1.09099497723348        3.19379845559936        0.13992011003087
H           -4.84029510966533        2.37681417620870        0.58523206981403
H           -3.74762912450793        3.73398461384071        0.61770619320988
