27
 energy: -47.722170123456 gnorm: 0.000618393323 xtb: 6.6.1 (8d0f1dd)
N            3.37569663880370       -2.70747683397196       -0.60874056277064
C            2.95752367354433       -1.66492512833050       -0.36653110709127
C            2.56641118377748       -0.34273755644676       -0.14210382089221
C            3.47713172077630        0.73366360182190       -0.16673033521047
N            2.87631869229977        1.89337586591557       -0.00716960919211
C            1.53986077241162        1.67042733940927        0.07412255631504
C            0.77046819667857        2.81520687414919        0.21068321172705
C           -0.58303742157639        3.10718422368493        0.15242181625329
C           -1.72507438529705        2.34700687563332       -0.02303996005074
C           -2.03003352123204        0.98859248414537       -0.06661502818001
C           -3.36448492302842        0.60005862382178       -0.19287504554141
C           -3.47471577850979       -0.79824379113244       -0.08430050222633
N           -4.61719430072229       -1.51417020474306       -0.12630872685985
C           -2.18776434754601       -1.30857539841273        0.11864682609919
C           -1.25176554845894       -0.26373810777851        0.10394945117638
C            0.11622494070514       -0.54115817984782        0.17877841115890
C            0.38231127596834       -1.90816181655366        0.48502754416086
N            0.55685220312145       -2.99066395506850        0.82020907531095
C            1.27885909026884        0.22952824345554        0.01441494136406
H            4.54191982307796        0.66564611082634       -0.29734149658738
H            1.41202780777819        3.68423144648186        0.31254848049096
H           -0.78778637381970        4.16999472635796        0.22008061198015
H           -2.62162256492967        2.95271739455017       -0.12068708293690
H           -4.19031376512975        1.27398625584615       -0.33124199903396
H           -4.57288120860211       -2.51755227897528       -0.12615511328554
H           -5.47581768015378       -1.07489716350794       -0.40538676193862
H           -1.95397681130525       -2.35062963022970        0.22922242156018
