24
 energy: -43.762014770902 gnorm: 0.000913635696 xtb: 6.6.1 (8d0f1dd)
N           -4.68635630932905        0.89506100868347        0.00131621915073
C           -3.76992800585454        0.20071681834153        0.00289120475483
C           -2.63317964415394       -0.60665524492599        0.00124962843939
C           -2.58335667352176       -2.00637967972985       -0.00032142256962
N           -1.34129018821954       -2.46114835471703       -0.00084844574420
C           -0.50051327856037       -1.40387821792562        0.00016961742890
C            0.84792309005728       -1.69063753533177       -0.00034801143266
C            1.98774215938195       -0.90080728232065       -0.00003789899757
N            3.18494275945878       -1.50666746884757       -0.00120535694277
C            4.08193962980420       -0.51814827420774       -0.00069158122316
N            3.59170561937453        0.70929312971622        0.00078748842191
C            2.24298098893177        0.55704044345786        0.00133762265513
C            1.49138237696612        1.71095954515215        0.00300163017720
C            0.12446033402096        2.02629435514167        0.00390322426621
N           -0.14647806950864        3.36222435125795        0.00711515900671
C           -1.01563266429415        1.20459463744635        0.00313026685151
C           -1.28274305041960       -0.14812228431928        0.00152715272716
H           -3.42044857058263       -2.68126828587969       -0.00082300333107
H            1.06131718448233       -2.75410306442284       -0.00137925765122
H            5.13887519244514       -0.71200627585553       -0.00144147670677
H            2.13901294460599        2.58369664958918        0.00380628381529
H           -1.09308332444452        3.69717393651464        0.00338976157956
H            0.59824670671105        4.03516736159390        0.00324335888915
H           -1.93381400155137        1.79098801858864        0.00408188373538
