26
 energy: -52.792369793387 gnorm: 0.000966888163 xtb: 6.6.1 (8d0f1dd)
N           -3.01968340951713        3.19955683712945       -0.35308428238430
C           -2.79812715564518        2.07561432284067       -0.27484111961923
C           -2.65627404033670        0.68454520768190       -0.24983052409819
C           -3.69760583553510       -0.18551057990935       -0.65548408985398
N           -3.34983883765149       -1.44962748051104       -0.59758329455769
C           -2.06500576457814       -1.51365126541213       -0.16513233123296
C           -1.61104176317797       -2.75348167514830        0.21443421823628
C           -0.36493856911920       -3.14025630701698        0.73834858760795
N            0.79921137504750       -2.67157001476869        0.46654420653538
C            1.38477501330542       -1.60915576052155        0.01919162926559
N            2.63179424458241       -1.67982497541539       -0.46171332667251
C            3.13788241240067       -0.44606182453182       -0.43908826591318
N            4.37282721597939       -0.17247172259680       -0.84701302436844
C            2.19491895932824        0.51981766826589        0.06900909846653
C            2.54784356987188        1.85781718804409        0.23258417009022
N            2.97648450304226        2.92094630795303        0.31904140426619
C            0.99714988564984       -0.18238952208948        0.25109391796416
C           -0.27873873966143        0.38815255353418        0.35808461799010
C           -0.24900362875990        1.77278971498927        0.68413423840796
N           -0.19286018254491        2.85192342551944        1.06563746739964
C           -1.54190654135667       -0.13134362081740        0.03869417665356
H           -4.67707971717611        0.11234850516451       -0.98370458951005
H           -2.36447439267740       -3.52859653862431        0.14700082288230
H           -0.34571185204661       -4.03607226362536        1.35434509915858
H            4.94547337643981       -0.91872875550391       -1.20279954155370
H            4.74084305433571        0.76097100877115       -0.76984300945835
