23
 energy: -44.031928830286 gnorm: 0.000614508739 xtb: 6.6.1 (8d0f1dd)
N           -4.00077624652792       -2.21608126665318       -0.00323100644116
C           -3.00778407554533       -1.64398121921517       -0.00365391032281
C           -1.73343994501279       -1.01229342567869       -0.00215990478903
C           -0.66512021729540       -1.94545929140587       -0.00182591346393
N            0.62589421053736       -1.88919695229762       -0.00161742046033
C            1.54432169446375       -0.93735220981358       -0.00120836398890
C            2.88529500282912       -1.29239287979649       -0.00153100525903
C            3.62943182819379       -0.09156876359734       -0.00054212209290
N            4.95851298929716        0.04139394970618       -0.00044546070802
N            2.83025754804606        0.99083702941588        0.00030355457834
C            1.55934534662343        0.56993100787067       -0.00014890890294
C            0.57741180054656        1.54029620235162        0.00015316990915
C           -0.80791687848466        1.47907961291089       -0.00049111804687
N           -1.50477832343002        2.62301658719824       -0.00021020928786
C           -2.78973570155724        2.25823342267141       -0.00115915959242
N           -3.02342589303102        0.95617580196368       -0.00206594266173
C           -1.80441514867779        0.37529631613325       -0.00166182706952
H           -1.01665977268977       -2.97866533384053       -0.00193926544847
H            3.27282733694559       -2.29086834733049       -0.00228753683149
H            5.56034063538176       -0.76188263419729       -0.00069046930243
H            5.34989487337012        0.96728711328763        0.00062551259692
H            0.96396547379893        2.55347507964553        0.00078151719944
H           -3.58560293978183        2.97986915537051       -0.00119961571438
