26
 energy: -52.005888851548 gnorm: 0.000967802714 xtb: 6.6.1 (8d0f1dd)
N           -4.18022122434494       -2.47288407818631        1.32917816713589
C           -3.67211634342299       -1.58016350857880        0.81409228283655
C           -3.10189769000463       -0.46724329726857        0.19652945346156
C           -3.81180630289506        0.53100263151029       -0.53786989337571
N           -3.04217551457271        1.45104667090547       -1.04808352030408
C           -1.76733157351261        1.20518005779452       -0.58826321962395
C           -0.90742470357769        2.24524293301550       -0.52803157106182
C            0.34500569622890        2.35295500157879        0.20005832812514
N            0.56265774308578        3.54669282960651        0.79124960196779
N            1.31342063121935        1.50408931809459        0.26096878141151
C            1.48435107084514        0.21593162839764        0.10120055157696
C            2.70491888137587       -0.39484081806817       -0.16080514353990
C            3.94466656346906        0.19004525504712       -0.39960898127155
N            4.98785101556750        0.62931100470091       -0.60453318916763
C            2.46118999936729       -1.81521308598150       -0.08922971680095
N            3.38313596925568       -2.76111568810699       -0.25129476255039
N            1.18904526008699       -2.10153291251951        0.16384218059216
C            0.51357752039085       -0.94429245376594        0.24442558623808
N           -0.77172628984222       -0.97336630611526        0.35131535236524
C           -1.74279526570071       -0.13852806960035        0.08979018271958
H           -4.87563894448606        0.54692737244982       -0.70019461536331
H           -1.27336414408731        3.16950062193067       -0.95969488429084
H            1.43233882842583        3.69792666254411        1.27400101192097
H           -0.09600508265223        4.29916829211217        0.70361486251180
H            3.10772704333229       -3.72414166483162       -0.16107367640768
H            4.33719176065167       -2.51908623826924       -0.45687701770755
