26
 energy: -47.205898662620 gnorm: 0.000889503000 xtb: 6.6.1 (8d0f1dd)
N           -3.29095527057544        3.10240461838319       -0.05162881847171
C           -2.39540044404324        2.38356475737842       -0.06584648186632
C           -1.27504218690474        1.51838394778958       -0.10269531420252
C           -0.06885789598575        2.21565271712912       -0.30510257492331
N            1.17970203918807        1.93126631294666       -0.10925096124248
C            1.91627761643780        0.85729657055235        0.00874324876016
C            3.26929537204108        0.92035352129537        0.34274794634711
C            3.80105873728494       -0.35067203165943        0.08523148284833
N            5.07335900013930       -0.75118268436969        0.22664094064294
N            2.86167088735264       -1.22420606252885       -0.35011837841322
C            1.69052322536474       -0.58704168355102       -0.34714660120749
C            0.53766168590427       -1.34181547049530       -0.47866977214537
C           -0.80310854942812       -1.08143323680886       -0.24486937397394
N           -1.61960008667185       -2.14107779050659       -0.20940941090017
C           -2.85013588777964       -1.69978145130109        0.11661162541611
N           -3.86900684484350       -2.55878834257644        0.26806194463146
C           -2.88044856269096       -0.30160281408223        0.27609979642466
C           -1.59104549784045        0.15598354423906        0.03430202232668
H           -0.20834862778654        3.26628687637870       -0.56472747296955
H            3.80283865804040        1.78969045168566        0.66983688112787
H            5.31991249663520       -1.67981993712492       -0.06532959584645
H            5.78418242880155       -0.11184437340084        0.53202991182483
H            0.73422711440743       -2.39550459940805       -0.64332684106039
H           -4.80095589073288       -2.22248412718738        0.42785052109872
H           -3.71503928742039       -3.52674680299453        0.04752560557513
H           -3.74093949579394        0.29137448291714        0.51710191649912
