24
 energy: -43.745025355643 gnorm: 0.000623297926 xtb: 6.6.1 (8d0f1dd)
N           -4.09877582186074       -2.01905754895166       -0.03710787953359
C           -3.36346362297687       -1.13712206601175       -0.01946567494169
C           -2.52572984295083       -0.02056656332599       -0.00064815856132
C           -2.94803836239806        1.32612302098944        0.02241278220486
N           -1.94166669989498        2.17324600218762        0.03453126306111
C           -0.78161901134856        1.45794751291093        0.01994109548829
C            0.36725696069486        2.20797581991665        0.01493605180263
C            1.75103919134750        1.94424836039470       -0.00512603415911
N            2.53257842826306        3.06464889059172       -0.00041952586754
C            2.45238585061314        0.73388545907689       -0.00612223333681
C            2.11733588209604       -0.60887321419713        0.00141885083503
C            3.10333154202193       -1.60234851491224        0.00697599047829
C            2.44939506481923       -2.83649763868789        0.00842993694922
N            1.13135535934700       -2.72017164475651        0.00115347526591
C            0.82991113650324       -1.40626717820297       -0.00174564893934
N           -0.42654588066749       -1.10744771653047       -0.00757411499883
C           -1.11148303354396        0.00641001680406        0.00068945616638
H           -3.96515130869798        1.67616787167607        0.03039226873598
H            0.12931335686776        3.26840775297574        0.02602763048910
H            3.53030596261875        2.99283394896065       -0.08183830742218
H            2.11438594173136        3.97454168981279       -0.06630196745435
H            3.53090465894795        0.88343074932302       -0.01084977956224
H            4.16549309339498       -1.44429285848902        0.01039473844793
H            2.90573180037247       -3.81082795725500        0.01438020305237
