29
 energy: -60.757906079246 gnorm: 0.000343655747 xtb: 6.6.1 (8d0f1dd)
N           -4.71570943395507       -2.00330103734682        0.51290799196529
C           -4.12405893452156       -1.02114730621469        0.45940881865764
C           -3.42029779656341        0.18462045604802        0.41759581941631
C           -3.90215597041587        1.45332407851430        0.78849497282291
N           -3.00328218013418        2.42221270391031        0.66090286761763
C           -1.88507374272430        1.87532130193855        0.17162086554364
N           -0.84849334044338        2.58984209651426       -0.10470430688622
C            0.40408503689195        2.46011174555370       -0.41220038691934
N            0.93199529996742        3.44413473937440       -1.16607302497399
C            1.32932959083064        1.45973997680374        0.09685224770665
C            2.61995349689853        1.98615840605922        0.33372990836066
N            3.64149669092704        2.49091801376975        0.47602176310110
C            1.15659415780104        0.09289642031140        0.21622391926899
C            2.21346236711496       -0.80079370253309        0.50507900894234
C            3.41718348306359       -0.55348521211333        1.16793101120709
N            4.41523832014230       -0.46481215869854        1.73132595172160
C            1.89082016570424       -2.08074648576033       -0.01881774434760
N            2.68974436656486       -3.14786502043057       -0.01191791730649
C            0.57426822282013       -2.03303130863075       -0.54326924749873
C           -0.06908947279097       -3.12354884707194       -1.13048098168131
N           -0.53053798181545       -4.05189322497913       -1.62567361511788
C            0.01902869967830       -0.75704019272705       -0.28704748238283
N           -1.26070927845116       -0.57021404399450       -0.29150950082477
C           -2.08728896417613        0.38605620917149       -0.00642476265356
H           -4.89534171915243        1.67912892997194        1.13425066259401
H            0.34059279616139        4.22078963038482       -1.41313723506815
H            1.92889480275869        3.53288842503434       -1.27474305234846
H            3.58635859206816       -3.10491739259203        0.44416409202444
H            2.37812253185062       -4.01627894346863       -0.41432049713962
