27
 energy: -52.513095516375 gnorm: 0.000790909330 xtb: 6.6.1 (8d0f1dd)
N            1.46918338689378        4.32796800107053       -0.38414692152660
C            0.99180803727788        3.28680598707074       -0.32274738789602
C            0.38828405891442        2.00499125512997       -0.26996137713430
C           -0.98954070885920        2.03149283651821       -0.54380130155102
N           -1.93256549672204        1.19266407339737       -0.23432624498341
C           -2.08557466863630       -0.06974522373660       -0.05022680762755
C           -3.33541902270278       -0.64527442600456        0.33708290414688
C           -4.43206880822746        0.07335907377849        0.81947966588581
N           -5.33502236559211        0.65990127185531        1.21989420877417
C           -3.28488447571440       -2.02077061709009        0.09234415094741
C           -2.01731986012220       -2.37793955646532       -0.35951368414853
C           -1.19199930588018       -1.24580056806793       -0.37848113872349
N            0.10613880343658       -1.34819753884885       -0.41957145994226
C            1.10369285130004       -0.53471809746212       -0.21744193093299
C            2.40165498910184       -1.08609050819132       -0.08346035912194
C            2.75017308394078       -2.42924097451320       -0.22628458805986
N            3.10678724714295       -3.51657717215389       -0.33395400619954
C            3.31887570139066       -0.05735432923410        0.25268441222563
N            4.62655860587496       -0.22932906776737        0.48416435735184
C            2.60826237608455        1.15420641583789        0.30433595226321
C            1.26872007405878        0.94137022249586       -0.00963781828233
H           -1.37368090515447        2.96823120989612       -0.94135253111096
H           -4.10950020826573       -2.69461734075904        0.24215605023409
H           -1.69123709508021       -3.36678310049557       -0.61862825653011
H            5.21453686562660        0.55577425990874        0.70158891024156
H            5.03783389668907       -1.14282183703101        0.39262892813588
H            3.04516687451960        2.10871006225918        0.53529388046460
