25
 energy: -48.275103440828 gnorm: 0.000880269821 xtb: 6.6.1 (8d0f1dd)
N           -4.64884069734635        1.78024197004052        0.00808149783995
C           -3.94295886350355        0.87326439237404        0.00542907624755
C           -3.04977351996506       -0.19847367917197        0.00338203502641
C           -3.35616857311776       -1.56207954399528       -0.00068749404040
N           -2.26607736676452       -2.31767416019279       -0.00196064526559
C           -1.18825385845797       -1.51185743076097        0.00088504685768
C            0.04715590823174       -2.12782063427581       -0.00019417340048
C            1.34296100757535       -1.64340462927057        0.00088813677285
N            2.35474878410545       -2.52788545340654       -0.00181000767898
C            3.46852401420527       -1.80109772886828       -0.00082786306081
N            3.29582984206744       -0.48564477038546        0.00232513941609
C            1.96006192686400       -0.29643158775762        0.00374550527038
C            1.53336455341161        1.03200935723154        0.00775253948660
C            2.65749464493796        1.90946990456994        0.00875793154439
N            3.51677515522649        2.66976818421671        0.00912114526555
C            0.27450446590972        1.68075442961869        0.01115616880686
N            0.31138442834797        3.03839261289278        0.01697463751020
C           -1.02817252218330        1.14371709070354        0.00919056924957
C           -1.62346169256359       -0.09678575938240        0.00465665260881
H           -4.33543608958807       -2.00560372069430       -0.00269245364621
H           -0.01019904641630       -3.21078670653908       -0.00296214266984
H            4.44525943432024       -2.24722077775194       -0.00252628346213
H            1.19047739380810        3.52780263263644        0.01776263974995
H           -0.53901433712639        3.57318411123376        0.01818849015857
H           -1.77486038287850        1.93751152613508        0.01183069221302
