26
 energy: -48.001859611375 gnorm: 0.000473401739 xtb: 6.6.1 (8d0f1dd)
N           -4.79123997181688        1.39534243268866        0.49088021741358
C           -3.98089207498919        0.62194232585926        0.23114359505717
C           -2.98301658294892       -0.30019245669398       -0.07479996441236
C           -3.13771799732765       -1.55314108505065       -0.69138836606485
N           -1.99066870732932       -2.20590128126643       -0.82874174616686
C           -1.02362279534858       -1.42615292510048       -0.31428562570615
N            0.14242927746245       -1.94757235443433       -0.05531059912946
C            1.34020183377441       -1.58467275739408        0.25451042535712
N            2.08874474829772       -2.49744145553784        0.91586405415172
C            2.01955095284146       -0.36842159051897       -0.16409693514898
C            3.36656094598026       -0.59775553928948       -0.53114939263979
N            4.45498455879611       -0.83791645108365       -0.80760714511256
C            1.56826418714044        0.93249388278883       -0.20633738359271
C            2.45542714875141        2.00698138074417       -0.50063491311298
C            1.85595442241048        3.19377712956110       -0.15050650729202
C            0.55841863699527        2.93014230444568        0.31851257707677
C            0.30149413772982        1.55981398059969        0.25811672870683
C           -0.99254008148647        1.07789838649710        0.43003071481061
C           -1.58315561101442       -0.12805858075339        0.11591153876976
H           -4.05976751901009       -1.99119347019147       -1.02905021143534
H            3.08614406650867       -2.38868954503277        0.99004758146306
H            1.68594260259669       -3.40795545818895        1.06613741357490
H            3.45405438404293        1.88148899431002       -0.87508672080225
H            2.29926573212801        4.16940051067340       -0.22918280795078
H           -0.15420667150325        3.67233141442560        0.62731470521653
H           -1.70242005556944        1.85197042605679        0.71202248566892
