25
 energy: -48.268921848568 gnorm: 0.000743071773 xtb: 6.6.1 (8d0f1dd)
N            4.29329772542676       -2.16486658952609        0.33500795509938
C            3.27551475396653       -1.66184997739641        0.18080114728435
C            1.97690108106749       -1.12679999525337       -0.03892012137967
C            1.04674782799424       -2.10598527453211       -0.51475850159092
N           -0.22435155847072       -2.19889814799372       -0.42021038402417
C           -1.24264039306302       -1.42294785620127       -0.10956305882324
C           -2.49312205076522       -1.92345140198315        0.21578488346607
C           -3.39389305268322       -0.83179485681111        0.14992568393507
N           -4.71132799336148       -0.85318761069344        0.36985057558738
N           -2.77550166342757        0.30757144768453       -0.19682759905786
C           -1.46279394631857        0.04871603527510       -0.27491115791504
C           -0.58659341456416        1.12400778992313       -0.34500684016681
C           -1.25804626332087        2.37134096802400       -0.49031824012904
N           -1.77372489268660        3.38366279393680       -0.63980894456172
C            0.80046547861626        1.23360792591883       -0.11489260443628
C            1.44519190579025        2.45486817392744        0.03409616945108
C            2.77257406462375        2.17510854958991        0.41593253611699
N            3.01173552999125        0.88523369360637        0.50605259408880
C            1.86857070153584        0.23244095206253        0.15748408835324
H            1.51416052722721       -2.98938626174565       -0.94804552203677
H           -2.73578225750594       -2.94390154252272        0.43249940858175
H           -5.23264155985011       -0.00414873988672        0.23657746873132
H           -5.18075420826211       -1.69894829089447        0.63719450490816
H            1.01042156653279        3.42729232486089       -0.08783549106418
H            3.54895350180792        2.88884419693084        0.62505245158183
