27
 energy: -51.726695406793 gnorm: 0.000621919477 xtb: 6.6.1 (8d0f1dd)
N            4.88355949794810        0.92823732200058        1.41607164653714
C            4.07454204568480        0.24443201103867        0.97024899620855
C            3.09403865380515       -0.58748547823057        0.43203313896819
C            3.21637517411995       -1.94151568801513        0.08631878896992
N            2.10921064610081       -2.45190056251889       -0.43974201213141
C            1.16893705934075       -1.48805660485928       -0.43083427743118
C           -0.14892604597515       -1.82913175221343       -0.62944645544087
C           -1.34505864453068       -1.17365365890253       -0.33892053196921
N           -2.43944071219068       -1.92688657102356       -0.33052116166758
C           -3.46614961952608       -1.17124980614146        0.13613701502202
N           -4.68691502234929       -1.70385549205121        0.26389281779648
C           -3.05606353829791        0.13496998555999        0.42504841122391
C           -1.70045637492664        0.21444055114253        0.09636713353374
C           -1.01374327573315        1.42666102848674        0.02014449642663
C           -1.77749640504171        2.57564281731976        0.31820944631558
N           -2.37755826752851        3.52952221064076        0.54510506697845
C            0.34006592664032        1.71908470233935       -0.35878110513279
N            0.58046406097010        2.92936486049038       -0.91973675160185
N            1.40520339566190        1.02251233423127       -0.08663972731461
C            1.78565796492079       -0.20858433442048        0.03068969359100
H            4.09433263906111       -2.55176333737905        0.20517952980623
H           -0.29699103953272       -2.87172162019408       -0.88710936241873
H           -5.44981650468974       -1.16764868375308        0.63425422931722
H           -4.82115515637028       -2.66509253591891        0.00492192616811
H           -3.67542558764267        0.93203623378081        0.78553151182853
H           -0.14275076864205        3.62802654079844       -0.95152517897251
H            1.54051980212409        3.21934869169236       -1.00829775651006
