24
 energy: -48.551923041055 gnorm: 0.000980452940 xtb: 6.6.1 (8d0f1dd)
N            4.40613058933962        1.63286686574222       -1.30696686831283
C            3.72883072398987        0.80637153526355       -0.88585071170597
C            2.90481427649299       -0.19734741904313       -0.37371843731638
C            3.26709045202417       -1.51260496480868       -0.03250325662848
N            2.26378467366514       -2.21823953356688        0.46854629585163
C            1.16034170521959       -1.44798385988557        0.43727645536181
C           -0.07714538088779       -2.02614642775312        0.57531456207841
C           -1.34938136681955       -1.56305719107795        0.23217946438380
N           -2.34311804267411       -2.44534577238015        0.14781567657873
C           -3.38839656051878       -1.77238197489083       -0.36361092563502
N           -3.18430933984422       -0.49923693903689       -0.62249618026357
C           -1.90669314608571       -0.25614169515612       -0.23220660129069
C           -1.48320892194859        1.05348594285523       -0.15373100480323
C           -2.42141212436634        2.03292275260942       -0.55914365946235
N           -3.14165526991731        2.87554622882436       -0.85398499276808
C           -0.23142362878320        1.58022017278149        0.34322177334938
N           -0.26272648772366        2.78612908332977        0.94224896161905
N            0.94112033656458        1.07167111349552        0.12880964605239
C            1.54502008426429       -0.06563523569038        0.00020557122320
H            4.24429177850326       -1.94983331361842       -0.13604970184505
H           -0.05654482990996       -3.08278087028011        0.81748963905727
H           -4.33165205569992       -2.25113702674109       -0.54937550908997
H            0.61095222677966        3.23479312679719        1.16447310116565
H           -1.11174329106408        3.32639569623048        0.96120515750092
