26
 energy: -52.015073476839 gnorm: 0.000534903000 xtb: 6.6.1 (8d0f1dd)
N           -4.67578935236555       -1.98879732801918       -0.78644242318326
C           -4.00048471329321       -1.12617323980025       -0.43951546076176
C           -3.17758949518997       -0.07979931537489       -0.02542442078575
C           -3.56860057668535        1.07489927344590        0.67950358902323
N           -2.56692947046953        1.90236858947049        0.93500474958513
C           -1.46009568556035        1.36695539677090        0.38548703514397
N           -0.41378591859815        2.09880355203930        0.22016862655781
C            0.83152370120262        2.04531268435859       -0.15215840949409
N            1.31408197978429        3.16162184924173       -0.73662611139494
C            1.76617248264457        0.99749465262167        0.14196010975223
C            3.09711285949936        1.41980693355508        0.35479278632347
N            4.16338946114797        1.81899435227614        0.50277777814618
C            1.56727344305766       -0.37686287881333        0.16887244519432
N            2.61538374884951       -1.17987316578660        0.39570642128270
C            2.17970431328039       -2.41525229980470        0.12357797732080
N            2.95247790304528       -3.49206054879108        0.22080740850146
N            0.88391195023953       -2.49628537968582       -0.26763616559543
C            0.41922381708061       -1.25151656503115       -0.22606460579997
C           -0.94800809336683       -1.05862062100378       -0.44465266449948
C           -1.76994850096941        0.00198712662417       -0.15725626968311
H           -4.56684715460085        1.31422688235316        1.00152019174160
H            2.30464320684006        3.27664867559319       -0.87252419301160
H            0.70922079600967        3.96334013390051       -0.80248523791700
H            2.57384484793692       -4.39235215797695       -0.01265217272747
H            3.90384974086864       -3.38731782611342        0.52503731543873
H           -1.45100043848766       -1.97952383435109       -0.72471034635813
