27
 energy: -52.506993681218 gnorm: 0.000992920556 xtb: 6.6.1 (8d0f1dd)
N           -1.87244966308136        4.32755113827127        0.41471179503706
C           -1.20470889535804        3.40114135875295        0.30620108007524
C           -0.34547071896745        2.27607680276035        0.20777454224142
C            1.00665995919634        2.63774469029013        0.39356123554135
N            2.10081583034938        2.07440256763102        0.00198896246561
C            2.52309434397658        0.87486584543213       -0.25662219189016
C            3.81218269044160        0.59560274348035       -0.75566720910287
C            4.03346850117817       -0.75178604393475       -0.52410306382537
N            2.98122569456988       -1.36639776722653        0.03527197929192
C            1.99776325532625       -0.46950119242156        0.13959391692998
C            0.69806958067473       -0.93710493230935        0.34617820923335
C            0.69524101849009       -2.32194199247257        0.68641383816144
N            0.72317673402703       -3.40570869970057        1.05551875696977
C           -0.55526770891879       -0.34900246728125        0.11709812351058
C           -1.71431281588267       -1.12786645569738       -0.03117249405630
C           -1.90918548325841       -2.51163636514132        0.00538123193928
N           -2.26305128945618       -3.60540126869555       -0.02888601672985
C           -2.82333249603435       -0.27673404294501       -0.34868266653087
N           -4.06577903775844       -0.70903998284994       -0.59106900878282
C           -2.35832937851347        1.03709782633932       -0.35553249037486
C           -0.98979254710974        1.06075244182432       -0.06139569992895
H            1.16314131741967        3.64222341715888        0.78309084876498
H            4.49677796270758        1.31351873453039       -1.15944151145305
H            4.92650932267263       -1.31406634882418       -0.72835116112837
H           -4.27247838644132       -1.69298840428839       -0.54081464172850
H           -4.80011057583411       -0.05905032850570       -0.80866110263665
H           -2.96189554839973        1.90539224886783       -0.54143851661847
