24
 energy: -48.564269829606 gnorm: 0.000459388831 xtb: 6.6.1 (8d0f1dd)
N           -5.14868463937996        0.73626189042835        1.45437480221574
C           -4.23446404515292        0.22034796229063        0.98921740091090
C           -3.12595255626131       -0.42640712705343        0.43997007707221
C           -2.96999333921089       -1.81141802056017        0.23217350752481
N           -1.81360311067499       -2.13419703151107       -0.32411989908702
C           -1.10202040792983       -1.00036509050651       -0.48123267174009
C            0.25899824332122       -1.08123250677770       -0.66281440444983
C            1.26845147066010       -0.14080604994513       -0.43126118272748
C            2.59580657017620       -0.47570043130874       -0.18015083247780
C            3.25224860948288       -1.68890172581879       -0.36462595256383
N            3.83941881506618       -2.66784513889833       -0.50293480808435
C            3.20603042620691        0.69940196823886        0.41363173708315
N            4.46098528899953        0.77170732847668        0.84532712639462
N            2.35864922005907        1.71389352475260        0.49390175226580
C            1.20440282070839        1.32613575619547       -0.07812621618533
N            0.33597988377901        2.20289896561858       -0.44450376889845
C           -0.88777188356861        2.15278424328334       -0.90218502947719
N           -1.86467393107222        1.41284377432485       -0.47955943279615
C           -1.97401443459071        0.17392204115006       -0.11470955979320
H           -3.68901967371332       -2.57315762348883        0.47683238531623
H            0.61160035766019       -2.10099094469391       -0.78373083503922
H            4.78135871280481        1.63077116153734        1.25942001943838
H            5.09200909446465       -0.00312664727847        0.73059222784704
H           -1.16873579283488        2.96888566844476       -1.56240740955006
