27
 energy: -51.718483230894 gnorm: 0.000854626373 xtb: 6.6.1 (8d0f1dd)
N           -4.57922679597380       -2.28142938066199        0.00222098317142
C           -3.94771793689022       -1.32148621418637        0.00198369977346
C           -3.20752296100233       -0.13997488376394        0.00340813703826
C           -3.71161479127001        1.16779422390619        0.00362861072883
N           -2.75981831870654        2.08804673559061        0.00474613299780
C           -1.55973402634344        1.45821929026539        0.00533266461466
C           -0.45920324587624        2.28149303640546        0.00668609741128
C            0.93931353546234        2.13483801093718        0.00758407748261
N            1.61753145822988        3.31197875842510        0.00920035103251
C            1.74084233806601        0.96555304504218        0.00706294343109
C            3.14414276589260        1.20814664696476        0.00776892184297
N            4.26194755752612        1.47016820611239        0.00791731331220
C            1.48281858484717       -0.40723567991766        0.00609676293062
N            2.56772310646347       -1.18921312303233        0.00607716353104
C            2.16215898949333       -2.47488777694043        0.00520079043067
N            3.05727805619192       -3.46655645990630        0.00506732448094
C            0.75804784140512       -2.57757920876254        0.00460859217494
C            0.25704803145282       -1.27808324823428        0.00508835988004
N           -1.03846832882682       -1.07723895355768        0.00452768666123
C           -1.78933645865588       -0.01981178075718        0.00451795693611
H           -4.74868861813523        1.45434917763381        0.00290893817836
H           -0.77432123074543        3.32207263664729        0.00713733454738
H            1.11697135589653        4.18253039782827        0.00897787886443
H            2.62336926767781        3.32565573725898        0.00945075352768
H            4.03452389922913       -3.23136557414299        0.00532215783093
H            2.76552461829560       -4.42683911357241        0.00413693821029
H            0.17099614099608       -3.47282460798148        0.00387780427825
