24
 energy: -44.544779543324 gnorm: 0.000541646554 xtb: 6.6.1 (8d0f1dd)
N           -3.75176745395629       -1.89794453317161       -0.39949449318974
C           -3.04658758091074       -1.00182640985349       -0.26211296976840
C           -2.29037596424192        0.16889463249496       -0.15643379807225
C           -2.84913954152506        1.45356925747401       -0.34971811064528
N           -1.94865102887924        2.40453971087452       -0.24556355880656
C           -0.74374913449571        1.82632916965879       -0.01197322657527
C            0.29298189601204        2.70055506688448        0.27013193941907
C            1.66545138024102        2.53026542118665        0.44604095162798
N            2.46993862387460        1.56791715781443        0.09868037283356
C            2.40782304437143        0.29484021706036       -0.13431946848003
C            3.56449185635446       -0.40141327936149       -0.55374592261808
C            3.35953930522009       -1.76219079002005       -0.39989293303144
C            2.06858146206277       -1.98534771295302        0.08130525839324
C            1.38650447776018       -0.76054142783781        0.17726942344832
C           -0.00074571137242       -0.69009936072199        0.26940020420362
C           -0.60775647034594       -1.95241381065748        0.54180013714476
N           -1.03680441693142       -2.96849199819166        0.85200791589502
C           -0.90478400356871        0.36520644732683        0.05074131207678
H           -3.88049970770688        1.67478098027800       -0.55542982497939
H           -0.05105741816203        3.72700210299948        0.32404415587474
H            2.20566723065871        3.40910220554632        0.79063632668528
H            4.46388586667853        0.08330292777717       -0.88146232083658
H            4.08085714499824       -2.53198354869221       -0.60515720920201
H            1.64859901916467       -2.94768832471578        0.30894521930216
