27
 energy: -56.518649701440 gnorm: 0.000757290800 xtb: 6.6.1 (8d0f1dd)
N            4.80976961905684       -1.88141530734454       -1.53797346612184
C            4.18510912554159       -1.14176010156210       -0.92002827425557
C            3.44731375024003       -0.21841747861102       -0.17880589489941
C            3.95550789155667        0.71362589189349        0.75752989919061
N            3.04346630624561        1.49019348277295        1.32061189397332
C            1.88101518677632        1.19829326962534        0.71582907630769
N            0.92707736295985        2.02507917536754        0.54975973209753
C           -0.21655657726871        2.14392867800710       -0.09700937401408
N           -0.39479492348296        3.35273080829903       -0.67284337460904
C           -1.31119408058679        1.22987496498928       -0.11189151844732
C           -2.57412753320444        1.84692721524011       -0.25506831666239
N           -3.56329265186146        2.41106741444948       -0.40360585117738
C           -1.29121284244798       -0.16579343922499       -0.04121787250323
C           -2.40640011235860       -0.99270044573143        0.10857981694345
C           -3.76533412652573       -0.69537632661267        0.20286112446269
N           -4.90344693401745       -0.57093729839905        0.30584466530736
C           -1.90581403017894       -2.33474056666487        0.19463291973058
N           -2.63635151749172       -3.42908418220706        0.38273120519475
N           -0.57539694716339       -2.38028274074170        0.07577019138598
C           -0.13425529650139       -1.13161014949858       -0.08991945343777
N            1.13472843864770       -0.96721129189281       -0.32383133015956
C            2.04569214211365       -0.10161976183833       -0.08599553338609
H            4.99021660561134        0.81153657420238        1.03738712963987
H            0.30451420065432        4.06093143030599       -0.52499862322778
H           -1.28868027093003        3.61223101150043       -1.05570031296812
H           -3.63867080705595       -3.36967218057850        0.44734554944456
H           -2.17159557263398       -4.31947283934572        0.43731942029164
