31
 energy: -59.423492117879 gnorm: 0.000959976233 xtb: 6.6.1 (8d0f1dd)
N            4.41419406344096        2.63162492540956        0.88058271837912
C            3.85499192581228        1.67547226576311        0.56610136928358
C            3.23760483042776        0.49262993674624        0.17342245172493
C            3.92017335555147       -0.57625117879250       -0.50135755269229
N            5.22324647069242       -0.54583595528429       -0.81890376078882
C            3.01192632792366       -1.60168783617339       -0.74218078856726
C            1.76855461999165       -1.24590735310815       -0.20134339848097
N            0.82975097993151       -2.11795529213457        0.00562835637513
C           -0.41452197779071       -2.18106899567899        0.38693454525709
N           -0.75186657367457       -3.32882865580075        1.02657936964541
C           -1.48331801082021       -1.28087000407566        0.05931623794676
C           -2.72258029721705       -1.93601573499060       -0.10205529352665
N           -3.69059294509192       -2.54966618869581       -0.19090199353784
C           -1.47960753440598        0.10962141585972       -0.04572415835153
C           -2.62848213901314        0.87117782291935       -0.33291181649887
C           -3.87900420397109        0.50331428122027       -0.82126010737325
N           -4.93470123995725        0.33715001548390       -1.24770804557911
C           -2.29912286546189        2.22136136938958       -0.02097222194387
N           -3.11292939461629        3.27637800626897       -0.12399852098816
N           -1.03767187908201        2.33628992365184        0.40907974877796
C           -0.46877217420131        1.11999373833136        0.36295148268467
C            0.90143286730927        1.08992939271826        0.58717744646356
C            1.87902225431490        0.15977722817008        0.28705670039831
H            5.78619379146895        0.24445240756048       -0.55566313797295
H            5.64619928156758       -1.30783565888117       -1.31731290734197
H            3.23255839212408       -2.54558569496055       -1.20053215683818
H           -1.71997887962523       -3.57547048833945        1.14666977336070
H           -0.05451794385466       -4.05090903282913        1.09172170383029
H           -2.76654848188639        4.18521720689150        0.12653701392151
H           -4.04420214198043        3.16489897387666       -0.48467647396875
H            1.27995705269415        2.06838446958337        0.86725406660167
