22
 energy: -45.096070692729 gnorm: 0.000919563582 xtb: 6.6.1 (8d0f1dd)
N           -2.26018986127865        3.32874323878836        0.71792357698083
C           -2.27929665038347        2.20322261010074        0.49436151799959
C           -2.32379921106174        0.82942822385949        0.24241537495757
C           -3.47554235169358        0.01018173862628        0.21589761156205
N           -3.19182579858766       -1.25006589055572       -0.03921599969459
C           -1.85591671928373       -1.36624046510043       -0.17700841515778
C           -1.28323868563644       -2.62171833294760       -0.27090304092634
C            0.06360487993415       -2.97570132144650       -0.31883587262976
N            1.09766660138172       -2.37015770386255        0.18637121265589
C            1.64615227405950       -1.26916551518701        0.45097802002886
N            2.79435029509989       -1.02047255221837        1.06304241330853
C            3.26224284598547        0.14000817129356        0.59588773117847
C            2.38607956512759        0.82457941712056       -0.25384182144413
C            2.62044364260811        2.01319766787520       -0.94758582082242
N            2.82924383266827        2.98412188835790       -1.52237481638313
C            1.17740040286528        0.07947427529974       -0.22553887151128
N           -0.02544464868760        0.43815435091854       -0.25172455626411
C           -1.24209500000473       -0.01435903148841       -0.08793436474740
H           -4.49004570565626        0.33373815803034        0.36247190991930
H           -2.00222548809817       -3.42596538468688       -0.35945860857131
H            0.30633989326539       -3.94654606027225       -0.74221069334974
H            4.23558249137658        0.48029205668942        0.90233174031332
