27
 energy: -52.522276071524 gnorm: 0.000861141146 xtb: 6.6.1 (8d0f1dd)
N            3.39047943206568       -3.41449879573025        0.58534617905315
C            2.55874535674334       -2.63552429936491        0.45551860734568
C            1.52720684389855       -1.67183872348530        0.32088320026889
C            0.24972791312167       -2.18486456783545        0.55094607856922
N           -0.92815448901427       -1.75080280326763        0.20172751702314
C           -1.54010266902732       -0.63892758045658       -0.00231224353306
C           -2.91895084114281       -0.62676779521388       -0.42009995460109
C           -3.62253922836686       -1.74674942429795       -0.87694362755970
N           -4.20484780961891       -2.65781006369386       -1.26236177551075
C           -3.43112763221010        0.64347924287919       -0.22642102114662
C           -2.40659954548979        1.48998094240501        0.24916959191417
C           -2.56018982074582        2.84714885876073        0.55008741757364
N           -2.68092493581783        3.96271063474343        0.79666716637020
C           -1.19470763823984        0.76989744375786        0.32226400017026
C            0.03677450651016        1.39374528447176        0.40516806492862
C            1.33472275252544        0.95665844784226        0.17225392109745
N            2.25882620867132        1.91525861717674        0.02291892181976
C            3.42312630987736        1.32364110701653       -0.29416367717080
N            4.51963828265763        2.04549121307685       -0.54189715956098
C            3.29900225529417       -0.08608762639829       -0.31127109780968
C            1.97923788175318       -0.37283305706312       -0.00192124428275
H            0.21544826133536       -3.19983144697828        0.94223914826446
H           -4.44683412033928        0.94610491043831       -0.40769513057365
H           -0.00838155534461        2.47367499898386        0.51268728084293
H            5.38951613320474        1.60237464747730       -0.77553463048093
H            4.46404830882728        3.04679125205631       -0.47540713734364
H            4.08412191697087       -0.78924662290414       -0.50875910557021
