27
 energy: -47.719429932314 gnorm: 0.000669185690 xtb: 6.6.1 (8d0f1dd)
N           -2.36159968756483        3.01196484889132        0.56544453576476
C           -1.54650255544574        2.23054662414084        0.36375522522563
C           -0.45599714264380        1.33227952043539        0.21915690850173
C            0.77021630845121        2.02343990449036        0.29050118606527
N            1.98445978161737        1.71980664549422       -0.05201806941294
C            2.70795602759021        0.64787856973377       -0.17121189412762
C            4.04599355192273        0.73221291251829       -0.61604163642265
C            4.67934875265658       -0.47466496895798       -0.37211222597995
C            3.76880275874138       -1.36952514092951        0.19213483138451
C            2.50592098968613       -0.76361632686259        0.27579709585725
C            1.35758181445932       -1.49691039546115        0.48657774609096
C           -0.00278800562455       -1.24077881909888        0.31498823155317
C           -0.90974577765829       -2.30892996416111        0.31159240718214
C           -2.19101739356314       -1.85076652478684       -0.01239644513292
N           -3.31122632235620       -2.58333621354879       -0.14838599267773
C           -2.11367762604683       -0.44206207481852       -0.17287156862271
C           -3.22897357354961        0.30020952767554       -0.56654358086948
N           -4.20818637027725        0.77357550260405       -0.94162974747427
C           -0.78467571727896       -0.01941149007352        0.05693521107108
H            0.66779460458380        3.07878451944955        0.54128398601850
H            4.48611469160620        1.62021182674696       -1.02701015338580
H            5.71239157084760       -0.69071311882555       -0.57803941234967
H            3.98537521613391       -2.38005280135403        0.48828966922161
H            1.55520669191041       -2.54596968346306        0.69316722275569
H           -0.65077619878083       -3.33559162622735        0.49477480620604
H           -3.29110973165237       -3.57915640222619       -0.02798634842573
H           -4.17035467366488       -2.13416330358184       -0.41400575481302
