25
 energy: -49.064886995218 gnorm: 0.000770259280 xtb: 6.6.1 (8d0f1dd)
N            1.82399452309819        4.25715839297732       -0.00022353207845
C            1.37443610977066        3.20344288563116       -0.00260065212162
C            0.75459847409656        1.91912021430981        0.00163472538102
C           -0.66358696976594        2.07144012833320        0.00906707533427
N           -1.68482536497545        1.28076105166877        0.00616032040982
C           -1.87164837135779       -0.02009238923366        0.00306963115818
C           -3.19332351232177       -0.53741889032480       -0.00248851387022
C           -4.38412619183108        0.19336983794032       -0.00852285801085
N           -5.37575085369694        0.77119898391628       -0.00970842937848
C           -3.06802566007168       -1.94053307424611        0.00128537163213
N           -1.80653878669062       -2.32847696937094        0.00750261419477
C           -1.01765879847092       -1.22918207212632        0.00744637481515
C            0.34628817231197       -1.45057706974241        0.00667414467714
C            1.45498720481448       -0.61593208197883        0.00182774968165
C            2.75476352132030       -1.16622287701031       -0.00039692402171
C            3.05982901952679       -2.53299553096901        0.00351338895483
N            3.32129600767865       -3.65074441676689        0.00263602456923
C            3.71246922731089       -0.12563679678476       -0.00661367980399
C            3.04588486473967        1.07386922024437       -0.00838679737827
C            1.63924805171154        0.84902240067177       -0.00259299664879
H           -0.97237310167227        3.11715915651991        0.01632771290432
H           -3.86793550856727       -2.65868295846803       -0.00011330152814
H            0.58391184356463       -2.51114460458782        0.00764873732432
H            4.77694451476818       -0.26943636963941       -0.00917519644092
H            3.50442843990922        2.04509808393642       -0.01257865485538
