26
 energy: -47.989934255298 gnorm: 0.000602158296 xtb: 6.6.1 (8d0f1dd)
N           -4.02850092859965        2.41847093144944        0.00081598525783
C           -2.98603232289801        1.93996472559625        0.00405813301103
C           -1.67777289415057        1.38484206357420        0.00655738113990
C           -0.69694758882748        2.40177296022018       -0.00195829978483
N            0.60410699128659        2.45314983186231        0.00136732717125
C            1.57269304447263        1.56948578418376        0.00574211262489
C            2.90281904770196        2.02827354688513        0.00851455758830
C            3.77888356822221        0.95478348731144        0.00912910534249
C            3.04544792989324       -0.23906261460201        0.00855915644184
C            3.57703837404988       -1.53100785666338        0.00840910663894
N            4.02548515324599       -2.58907261023734        0.01052532352106
C            1.65215355147697        0.06517194195535        0.00736345590151
N            0.79626370070960       -0.91031978464179        0.01177241275800
C           -0.51019979884656       -0.99607785489097        0.01401750079833
C           -1.08807394388569       -2.26650930583654        0.01629396767235
C           -2.49020791474459       -2.14865289084525        0.01657476186142
N           -3.37006740634115       -3.16519446484911        0.03394976588374
C           -2.81100204311487       -0.77975444097067        0.01739743843830
C           -1.64329707480621       -0.01371878713201        0.01421689910668
H           -1.12797970251024        3.40378129938494       -0.01134466777205
H            3.17185616258581        3.06758839899832        0.00840998157053
H            4.85278644674729        1.01337576001757        0.00941300505254
H           -0.52375112314933       -3.17899317926618        0.01674120416854
H           -3.04616388514601       -4.11385219416210       -0.02525974913164
H           -4.35590141332292       -2.98179643738678       -0.02385594450185
H           -3.81066892524938       -0.38424679555446        0.01905239374086
