26
 energy: -52.004407445104 gnorm: 0.000876301814 xtb: 6.6.1 (8d0f1dd)
N           -2.38810549627223        3.73433959402260        1.07917680254066
C           -2.38713743154576        2.66942825938134        0.64837710421527
C           -2.44096722217983        1.37642728467213        0.12887952997901
C           -3.55670516008319        0.79179223885123       -0.52526064945496
N           -3.33725029571111       -0.42979027018646       -0.94416660284398
C           -2.08274921205732       -0.78594722598342       -0.52444156780745
C           -1.77997890293803       -2.10719102290950       -0.48618063656196
C           -0.65590036097232       -2.75133669138090        0.14701102656145
N           -0.91791546688290       -3.91232098910607        0.78049419641440
N            0.59118103966659       -2.41434785969534        0.06744091838632
C            1.31431737165038       -1.35015349373190       -0.08875944899600
N            2.59739674375715       -1.44962680031473       -0.42454504851135
C            3.14581131769200       -0.22923146751547       -0.28435023109509
N            4.43537287432648       -0.01566371363300       -0.53294461129298
C            2.20403330150921        0.75465814924931        0.14168717980123
C            2.52558263528711        2.08824600733596        0.37521828697451
N            2.87771180689510        3.16801370945183        0.55410199700429
C            0.96380447745225        0.09665655564571        0.21415146874025
N           -0.16756729522672        0.72505146841921        0.35188466004817
C           -1.40783991386454        0.41969228293163        0.07896544013817
H           -4.50478775856193        1.27098777848113       -0.69784973837739
H           -2.55562502444563       -2.76549890732913       -0.85792018565619
H           -1.85125733966067       -4.28036891052226        0.82492853903092
H           -0.15940342896643       -4.41579592667824        1.20815696620944
H            5.00502978602520       -0.78232224732393       -0.84673996290597
H            4.83316989090897        0.89929942957122       -0.40542577093900
