28
 energy: -51.448738380438 gnorm: 0.000915772221 xtb: 6.6.1 (8d0f1dd)
N            2.87236037923223        2.97698498004112       -0.55082036116633
C            1.99783595749416        2.25373715269627       -0.38203925798292
C            0.86660248302655        1.41012935502901       -0.24671600603595
C           -0.33463808132145        2.11150382287750       -0.38312681153156
N           -1.56893057002579        1.83832902554604       -0.06581444823381
C           -2.32977729485443        0.79692535450905        0.04758008153247
C           -3.66465176273708        0.92129391992097        0.46911099033871
C           -4.33868937860913       -0.26554239769604        0.19732408398864
N           -5.63838384558747       -0.52599900152781        0.43887165800380
C           -3.41546073807677       -1.19730466797631       -0.35291691714295
C           -2.15498383931977       -0.63121704312465       -0.39557987001005
C           -1.00362464620841       -1.39038056603799       -0.57175159167645
C            0.33741238956456       -1.15859567041075       -0.33040419850089
N            1.12670702067270       -2.26007167142651       -0.29368196181895
C            2.34665740716859       -1.87710820863573        0.06053978806136
N            3.35712411295297       -2.73703224056907        0.23857870046940
C            2.42642197116309       -0.45403394968863        0.22397276774514
C            3.59914781718843        0.18074845786196        0.62493552880873
N            4.61588543967073        0.57106829439282        0.99583943174583
C            1.14633417539168        0.04254298304677       -0.04622539445780
H           -0.21309678700737        3.15459072858905       -0.67523254251253
H           -4.09084106122674        1.82062031230563        0.86861740686586
H           -6.23939177902923        0.20639828146291        0.77147794287268
H           -6.05720063806539       -1.36647650048373        0.08284872413812
H           -3.66038449310916       -2.20338830028886       -0.64126739496259
H           -1.19158745300223       -2.44022647425376       -0.77359189243665
H            4.26898865960354       -2.39880371795589        0.48992206787164
H            3.20347844804259       -3.71403644999979        0.06848148452814
