27
 energy: -52.518178919898 gnorm: 0.000718306265 xtb: 6.6.1 (8d0f1dd)
N           -4.73937671132223       -1.85546685573172       -1.29101837245921
C           -4.10687440401585       -0.98129517799196       -0.89686554576050
C           -3.34086026863619        0.08166031704211       -0.41911762476424
C           -3.75114198651675        1.42185511855609       -0.23593763717361
N           -2.80798100130011        2.18514757304434        0.28108301104902
C           -1.68834833303196        1.42975414849658        0.40018429306341
C           -0.48505251796154        2.04432171158371        0.65068795266845
C            0.83814477385441        1.65276677282822        0.42550497045257
C            1.85297999010076        2.60979821917379        0.41005888737786
C            3.02376353351141        2.06621251011188       -0.13060682207827
C            2.79293295758717        0.73990181772888       -0.46232805045645
C            3.75405784970460       -0.08278332098670       -1.05990194260658
N            4.59072660044622       -0.67228708681254       -1.58120906560014
C            1.45338402238808        0.38979384278398       -0.05034904993966
C            1.05871361427684       -0.91651860410874        0.08120922982555
C            1.92556468662369       -1.96542073667868       -0.31274683005181
N            2.53438307641823       -2.90505222246110       -0.56476321677552
C           -0.18075346392813       -1.45358147116374        0.64752070687068
N           -0.06610949107044       -2.55243409167372        1.42290231248388
N           -1.37306469094163       -1.06732790929291        0.35559125473209
C           -2.00976559987818        0.02954209197810        0.04512470210847
H           -4.72232936760945        1.82375751070128       -0.46289378958046
H           -0.59595662030443        3.09664861171373        0.89008706773835
H            1.73220207525759        3.63197070277845        0.71684338154888
H            3.95082837304332        2.58753832639883       -0.28334783719645
H           -0.91240698982713       -3.03300322913224        1.68261908110475
H            0.80645767003961       -3.05031102138632        1.48441882902048
