27
 energy: -51.724850704649 gnorm: 0.000518951673 xtb: 6.6.1 (8d0f1dd)
N           -4.09572359807422        2.71293055235328        0.60789311770492
C           -3.10978921440751        2.14925943470194        0.44301838545057
C           -1.88541329085353        1.46382519201574        0.25241135138448
C           -0.75571704424882        2.28563850576015        0.29348992229274
N            0.44545266175443        2.12835524636395       -0.19137771979963
C            1.34075163793887        1.23701516133609       -0.35672618902484
N            2.55033153036835        1.47446665290421       -0.87999081656560
C            3.37738702294158        0.55457355144835       -0.37477393161769
N            4.68636632357854        0.57764807754393       -0.62862346424118
C            2.71186316462708       -0.43601025400477        0.42252821212306
C            3.34050371424013       -1.48929838279282        1.07155866132806
N            3.91510936947802       -2.34126324308837        1.59100399073450
C            1.34207839578654       -0.15142355945157        0.29951270081498
N            0.35996179519460       -0.97446310353587        0.37230975422360
C           -0.92591135167008       -0.99198938794044        0.13708602246773
C           -1.56871996295893       -2.20664378534552       -0.09576316970779
C           -2.94504443449563       -1.98032271007215       -0.24023443420419
N           -3.88217337819298       -2.91233123398738       -0.47857223002608
C           -3.18925792361130       -0.59083568231603       -0.11675383019908
C           -1.99533967289083        0.06965589098588        0.09660390293487
H           -0.91592753637969        3.29111009993840        0.67922588014528
H            5.30077834521863       -0.08911875258984       -0.19510851628603
H            5.05274871946181        1.29922562752175       -1.22434677075581
H           -1.07354306568419       -3.15731083079180       -0.13172719856658
H           -3.62888610778488       -3.88266784871151       -0.53169650096339
H           -4.85431130973796       -2.66007745662660       -0.49177673597385
H           -4.15470583200038       -0.12586295561733       -0.19674650696814
