28
 energy: -57.035439316875 gnorm: 0.000874881194 xtb: 6.6.1 (8d0f1dd)
N           -5.46035394401012        1.48898912526274       -1.27853240055228
C           -4.67649523877067        0.75681384934651       -0.86896608479738
C           -3.72882635738790       -0.14598448068298       -0.38350722659735
C           -3.88636006540841       -1.53135483431217       -0.20473407586018
N           -2.80452594423387       -2.11711094139274        0.29055488673452
C           -1.84411058363469       -1.18335196665375        0.40252954794658
C           -0.53070790204671       -1.57897126632641        0.53019174939747
C            0.68285533765545       -0.92478827063532        0.31379605423611
C            1.85479189446310       -1.69097197437841        0.17149497983634
C            1.97744720756342       -3.07331703310290        0.33762736019704
N            2.13275555012756       -4.20457299802133        0.46350365032753
C            2.93729853849749       -0.85574333406813       -0.22759916748210
N            4.18234823863782       -1.25409731140749       -0.49436460402353
C            2.44564866121773        0.46576498904441       -0.29083926059838
C            3.26521021301431        1.51815709563679       -0.71544675040808
N            4.03074311514364        2.27108313625730       -1.12371622477819
C            1.07875273856956        0.48401481700271        0.08537563059110
C            0.42256992721472        1.67220930393816        0.40100115429305
C            1.20895744947000        2.85248762870024        0.46936513232814
N            1.77452992974874        3.84016163200368        0.60572630071872
C           -0.92937804155529        1.94263732901836        0.74506203806455
N           -2.01270467178496        1.33945831967768        0.40730027575721
C           -2.42502106967429        0.15474093047922        0.09127595335611
H           -4.77114337595115       -2.10482780703985       -0.41600384282313
H           -0.43458551000180       -2.65578458500391        0.63752635898864
H            4.43661931719916       -2.22444828085694       -0.41496011992255
H            4.87173417639144       -0.58184082168956       -0.78928656632201
H           -1.10048126995525        2.90043553640988        1.23108749679376
