24
 energy: -43.749100294195 gnorm: 0.000574382315 xtb: 6.6.1 (8d0f1dd)
N            2.72314800591393        2.95572826580617       -0.09705212768255
C            2.35651111942639        1.86667877558002       -0.04555681124819
C            1.99272502135238        0.52216055284398        0.00713430758465
C            2.91130817638541       -0.55592645108806       -0.09654266658596
N            4.23694497308528       -0.42033326372409       -0.27459503554046
C            2.19154183555178       -1.75328551210185        0.00680011832761
C            0.83039892061835       -1.48241837861495        0.14764464470116
C           -0.14132977237290       -2.47875896050196        0.20110729255148
C           -1.52545898500705       -2.40586107100330        0.18252242808016
N           -2.34371138226444       -1.49271093602466       -0.27874963863977
C           -2.45095409216383       -0.23358001223602       -0.41186223039907
N           -3.50773797634057        0.40124984292071       -0.93120161010372
C           -3.55006220104850        1.60441880188847       -0.35376724858244
C           -2.46486929192850        1.89592851636998        0.47015525078886
C           -1.58189565336309        0.81923568042078        0.32660011019155
N           -0.30574732506757        0.80957896713462        0.41796473024906
C            0.69319242682263        0.00017405802360        0.19343155354933
H            4.64005527717165        0.49690204266982       -0.35305737270718
H            4.83322839630681       -1.22646529803925       -0.31364712636679
H            2.62322376036501       -2.73635212505197       -0.03880236314374
H            0.25863132582765       -3.48271007338280        0.28871016636577
H           -2.05666359098129       -3.30662736414985        0.48225610335173
H           -4.37579516561658        2.25916057960537       -0.57314589187738
H           -2.29598269537409        2.79074755056105        1.03408846073552
