24
 energy: -47.764895008204 gnorm: 0.000904243637 xtb: 6.6.1 (8d0f1dd)
N            3.22892915404188        2.95232129161931       -0.70232031992983
C            2.35865868195773        2.25068745283729       -0.44401392066142
C            1.25045036263056        1.43341585459703       -0.11696784745461
C            0.15749463052426        2.14137095544848        0.47012384742757
N           -1.09723264181575        1.89214638163536        0.51608068417106
C           -1.90320601299635        0.87958342436247        0.31613124986996
C           -3.23197771297262        0.99838504465172       -0.03768982431753
C           -3.75184891635412       -0.31853016018448       -0.09155761172069
N           -5.01027670481942       -0.67164693337150       -0.35968715734799
N           -2.82094542804990       -1.25671959300360        0.15914065186105
C           -1.66819331454925       -0.63157037454954        0.37797045202054
N           -0.57994981138099       -1.31686824595242        0.50172919529334
C            0.69109229879169       -1.11267546250593        0.35424698958945
N            1.56893232950680       -2.09378435449045        0.51763589724570
C            2.71342887052627       -1.64598013881774       -0.04675671639674
N            3.80305405402598       -2.40252233321326       -0.10617271137411
N            2.68298858902217       -0.39745541525079       -0.54146095184278
C            1.47304380994665        0.06954346439524       -0.22223303813202
H            0.42000123477158        3.12348427057695        0.86129579515692
H           -3.77479157274727        1.90682393749341       -0.20558026377340
H           -5.25024225459585       -1.64761259127594       -0.33262691315824
H           -5.71596248633421        0.01839156618164       -0.54343968920960
H            4.62723606703355       -2.04086457944212       -0.55177080152839
H            3.78857076703735       -3.31505109063876        0.31340913901268
