27
 energy: -51.717903600813 gnorm: 0.000340108737 xtb: 6.6.1 (8d0f1dd)
N           -4.54273777985454        1.97802145538981       -1.04883308040803
C           -3.88771140807893        1.13754516167180       -0.61732460455222
C           -3.10725316279196        0.10793867682607       -0.09733254449624
C           -3.54447827816265       -0.98002304496423        0.67110306214063
N           -2.57420325204146       -1.81721284352092        1.03395464145773
C           -1.44240361989309       -1.36469681516008        0.47795397655605
N           -0.42033325964067       -2.12879460283649        0.29644278071824
C            0.80036985471218       -2.08289119413158       -0.14925113295760
N            1.23328521107264       -3.20783174083962       -0.76962365591892
C            1.77128455035027       -1.04261549931365        0.07557811788851
C            3.08635689018676       -1.52145825107267        0.25286882694514
N            4.14659997950757       -1.94519457193195        0.38597217599481
C            1.60669024019941        0.33604722154598        0.07974885131801
C            2.67040743635543        1.22128200881604        0.28217138266431
C            2.22929542017198        2.53704873802787        0.11026429202867
N            2.97665641471963        3.64692430354941        0.21278543332698
C            0.84522765086034        2.50924440727269       -0.19281134653358
C            0.39668325028397        1.19888750271768       -0.20554890525156
N           -0.88691260075289        0.97684376243570       -0.38622037418681
C           -1.68830220477771       -0.00147224455992       -0.13700403367453
H           -4.55855696060945       -1.17177314182294        0.97608100062019
H            0.61956819364957       -4.00520719639106       -0.77477021111256
H            2.21440487484022       -3.34654379438308       -0.94330163866825
H            3.68093791989341        0.92871527022999        0.50032354540068
H            3.95493800396848        3.58332116461673        0.43081056700184
H            2.56475916350893        4.55120840634580        0.06846541575570
H            0.21714031972573        3.36353423198073       -0.35541248365557
