28
 energy: -57.031434015199 gnorm: 0.000722158496 xtb: 6.6.1 (8d0f1dd)
N           -4.80700081896675        2.24000501068382        0.00157965537458
C           -3.73064725430459        1.84665140382441        0.03551772301376
C           -2.38768034229941        1.39635859600956        0.10872965978479
C           -1.51336306148200        2.37276465265453        0.64420765320286
N           -0.26637214993079        2.56513459358650        0.39775275208414
C            0.77705403897854        1.91364357994730       -0.00647195059856
N            1.84789916632500        2.59583490703062       -0.44962974879331
C            2.88140958890077        1.76478950585082       -0.43942058662900
N            4.10336122596573        2.12115902715201       -0.82452889787158
C            2.51037491272043        0.44565798354161        0.03426244566763
C            3.45379983762859       -0.57364752709452        0.14639643129629
N            4.33090253972273       -1.31636832521515        0.17616879471627
C            1.12761108914051        0.48721357687753        0.21969120594773
C            0.29459753178141       -0.64360903327446        0.37521197662774
C            1.00449993087230       -1.78051652995038        0.85527574203596
N            1.59488042280074       -2.60192660736640        1.39395342990849
C           -1.03037912470401       -0.84555646490194        0.00459727462800
C           -1.53156600283827       -2.14675870214268       -0.27650581062553
C           -0.87381139527738       -3.38156668796589       -0.20400916931072
N           -0.43075345628847       -4.44074903835151       -0.21101939315083
C           -2.82336562743574       -2.03533946920494       -0.81666350713422
C           -3.19506624143149       -0.70328439609192       -0.82885204359525
C           -2.15469753687400        0.08365940722081       -0.30472179146534
H           -1.97894029772872        3.17336358173365        1.21430560172142
H            4.87057673105734        1.47399801349252       -0.75407378790183
H            4.25747757272542        3.06192034618650       -1.14477920826996
H           -3.41068709609633       -2.86512969533132       -1.16419860558947
H           -4.14216397763543       -0.31908724627262       -1.15795622442539
