25
 energy: -48.291380721718 gnorm: 0.000441403626 xtb: 6.6.1 (8d0f1dd)
N           -4.26801740362864       -2.50838311549605       -0.00211215675719
C           -3.75439759641803       -1.48089716296888       -0.00113947678531
C           -3.13039249612539       -0.23190310248191        0.00017013557581
C           -3.76221569333620        1.02276718550136        0.00164125395910
N           -2.89319259612923        2.01830973171991        0.00257915643228
C           -1.64527650057091        1.49635244617470        0.00180121293008
C           -0.61840144422614        2.42509250454352        0.00265146954971
C            0.76999851812234        2.38254749728477        0.00234579505502
C            1.71532804864820        1.36615088683660        0.00102398081606
C            3.05995750399657        1.83995077022548        0.00120437763774
N            4.12090401187268        2.27184503185354        0.00165054971768
C            1.65770630969671       -0.04159770406352       -0.00053641812840
N            2.81435246142833       -0.70138363366225       -0.00152668561094
C            2.48288676942250       -2.01033753833968       -0.00288235646428
N            3.39834456483117       -2.97439135640792       -0.00409784149500
N            1.16231399161085       -2.25357695409545       -0.00284946602163
C            0.57419992476579       -1.05002172444007       -0.00141022854216
C           -0.81433151720534       -1.00849796751651       -0.00108577466760
C           -1.73348896029755        0.01951941312731        0.00020282294281
H           -4.82073156792749        1.21162606214279        0.00202442805446
H           -1.02710768506987        3.43058183838508        0.00381923585634
H            1.22571278171338        3.36843629942401        0.00335622704704
H            3.10340636100843       -3.93417141841419       -0.00522827420162
H            4.37130354831678       -2.72572743548556       -0.00421295796335
H           -1.24660481089897       -2.00555186744707       -0.00207322773670
