24
 energy: -48.550503761143 gnorm: 0.000876694691 xtb: 6.6.1 (8d0f1dd)
N           -4.67671931246148       -1.76038915309757        0.76236281097750
C           -3.61859491471270       -1.38011846793983        0.53969480500075
C           -2.30687558108839       -0.91167508566393        0.27191905491585
C           -1.30950975159929       -1.88033376736456        0.34400434005041
N           -0.10766112586153       -1.92450559868129       -0.17493063637806
C            0.92512122635938       -1.23677749886416       -0.40489914490250
N            2.08745343318846       -1.65831000401647       -0.89389384493642
C            3.04058422933039       -0.89145693099497       -0.35121561417185
N            4.33062741534480       -1.13930983472034       -0.54605437996843
C            2.52046454569252        0.20559428314859        0.42543800225951
C            3.29754670704343        1.10968167637563        1.14133573359110
N            3.99741012628358        1.81611640750891        1.71863709330930
C            1.13959728543224        0.18444600506064        0.21842673081809
N            0.26905087082115        1.10349323443340        0.14814961329064
C           -0.97752119168848        1.32174044454863       -0.12676492136196
N           -1.33673365073614        2.54662267303176       -0.55074011193677
C           -2.65989243849377        2.55930625573917       -0.63246011940412
C           -3.24736313289822        1.32985163152675       -0.29729741732053
C           -2.20410975282356        0.46577053741938        0.00309853528252
H           -1.59066721136566       -2.82511561329143        0.80491729669813
H            4.59641517336691       -1.89650315750823       -1.15225017980434
H            5.03192748738471       -0.57393618188179       -0.09772682065201
H           -3.16941567437468        3.45348116309035       -0.94376231140620
H           -4.29438737104558        1.09785551404187       -0.29576816776099
