25
 energy: -53.070654163631 gnorm: 0.000643930838 xtb: 6.6.1 (8d0f1dd)
N           -3.49265733677011       -3.28379898540135       -0.20210617188645
C           -2.63503346016423       -2.52739860431057       -0.12718615022618
C           -1.55166567482594       -1.61758182491618       -0.01861977848250
C           -0.34371033856007       -2.18329134303743        0.43528962812495
N            0.87494082689477       -1.77135689616981        0.32014596193885
C            1.57259388688657       -0.69756179622637        0.21381430983257
C            2.95268420969311       -0.70730827935599       -0.13575708415638
C            3.71445646816822       -1.86682849342478       -0.33149628444018
N            4.34095618985461       -2.81318880247675       -0.49909016689148
C            3.42235406079622        0.60398041800231       -0.19314343684490
C            2.36738904536341        1.49495952060770        0.05220459037819
C            2.47230917410450        2.89242062985035        0.07027002554136
N            2.58046743747615        4.03454920683438        0.07429692780866
C            1.18194536461969        0.76306689156189        0.30258992259892
N            0.02245096164133        1.32745844244267        0.36224108492439
C           -1.22302351253011        1.00372028743670        0.25687388883662
N           -2.18481536370343        1.91760198010047        0.37061614512769
C           -3.29494795657157        1.33699068395526       -0.11313463810221
N           -4.45490745821199        1.96883161768798       -0.19547596580597
N           -3.15385704729048        0.04762318232441       -0.51364924962023
C           -1.90852666440292       -0.27876270716955       -0.21337069254481
H           -0.41905986163108       -3.19935462668968        0.81744343148705
H            4.43959084813423        0.89092866121523       -0.39154248504117
H           -4.52270731210325        2.91649880246619        0.13350122024696
H           -5.24686972996689        1.49381352199092       -0.59322926760288
