24
 energy: -44.541497961609 gnorm: 0.000487021976 xtb: 6.6.1 (8d0f1dd)
N           -4.60338358233530       -1.31523663539754       -0.00028852309273
C           -3.48882856548277       -1.04799554183369        0.00059976883177
C           -2.09364840476213       -0.76510457010120       -0.00072139141425
C           -1.33855891274676       -1.96661090370985       -0.00141241973199
N           -0.07574699164920       -2.27230671645099       -0.00220912196054
C            1.04979511486210       -1.59698072965808       -0.00259002740906
C            2.26138170390488       -2.32030664668578       -0.00351944398254
C            3.33809759701963       -1.44970675252490       -0.00382165510333
C            2.85700033477500       -0.13276836533890       -0.00312468623570
C            3.64015215384279        1.02589105046429       -0.00342002552434
N            4.29760301260037        1.96751595926666       -0.00310221589241
C            1.43010841112801       -0.14994077441759       -0.00227502932666
N            0.79023646035912        0.98310472069966       -0.00153998621971
C           -0.46855594889415        1.32331508055078       -0.00078346909155
C           -0.79204292395139        2.69430297333908       -0.00008664219062
C           -2.17462016171766        2.84641419035225        0.00062549934329
C           -2.76610678135270        1.58939308304506        0.00040267757787
C           -1.77106077437691        0.58854943416737       -0.00045814883433
H           -1.96251523342851       -2.86056543063544       -0.00130673637578
H            2.30972896989165       -3.39298019956963       -0.00392950250690
H            4.37782375863111       -1.72316098448801       -0.00453327794238
H           -0.05435568101715        3.47372352148769       -0.00011588056054
H           -2.70336933408315        3.78182420310429        0.00125376618926
H           -3.82395870881693        1.39712236413446        0.00080020935315
