25
 energy: -47.480095853756 gnorm: 0.000810845077 xtb: 6.6.1 (8d0f1dd)
N            3.36411498706792       -2.86099265483178        1.39144421494245
C            2.97466661910716       -1.91412862785026        0.86858512518920
C            2.55703306654590       -0.74496829788329        0.23637225006790
C            3.39733896913467        0.16000428342885       -0.47459221326326
N            2.75657080219708        1.16692724149360       -1.00311822429968
C            1.45048452792056        1.07280592442410       -0.57823347962449
C            0.71579112894796        2.20633493032648       -0.53245210761510
C           -0.53175771926003        2.47689090451046        0.15794922787563
N           -0.61260464719455        3.71885815116508        0.69495508687153
N           -1.60468316837087        1.76767595472335        0.23298879105697
C           -1.92817805995601        0.50023791252214        0.06351974318706
C           -3.19861538826026        0.05050791035541       -0.20481239205152
C           -3.13314078849551       -1.37158779058599       -0.18792313316083
N           -4.15082729983799       -2.21408696464952       -0.38320838204440
N           -1.90181909329649       -1.83398328536976        0.05284481309015
C           -1.09490212579525       -0.77304118358377        0.17850438277745
N            0.17465204569273       -0.96429529823106        0.31206608863231
C            1.24811415599500       -0.25629372096762        0.09125700700952
H            4.45995978477760        0.05071724079389       -0.60722253355581
H            1.20294484470464        3.07930616749535       -0.95164864895883
H           -1.45363162660777        3.98398931645877        1.17641014688724
H            0.15181929186372        4.36551460637275        0.63059363180744
H           -4.07902394029192        0.64221166979682       -0.35779438868623
H           -5.07708349595731       -1.87744456398654       -0.57296321721290
H           -3.97133978612793       -3.20112048453062       -0.32117443001795
