26
 energy: -47.218611504318 gnorm: 0.000459258829 xtb: 6.6.1 (8d0f1dd)
N            5.08551139974519        0.67720409310341       -0.02498439316289
C            4.12610251166050        0.04229356730080       -0.01659452594191
C            2.94860165203138       -0.70132494767863       -0.00593555655121
C            2.82507424975148       -2.09624304324574        0.00327974884966
N            1.56214349206704       -2.48933896399521        0.01263973902402
C            0.77654608548660       -1.38828800812552        0.00927808238092
C           -0.58248551729317       -1.60448028777437        0.01385557519477
C           -1.69036905215879       -0.76513267731529        0.00787048900879
N           -2.90366053766106       -1.32181525991182        0.00693879590422
C           -3.77061619127105       -0.28648570833742       -0.00060613005674
N           -5.09228787716063       -0.47511561898383        0.00347086564166
N           -3.20923957038894        0.92831324920975       -0.00303414013462
C           -1.88055637477464        0.70589284058599        0.00160990282980
C           -1.06095034720530        1.81787452784999        0.00297277842688
C            0.31628852806799        2.05988473991074        0.00185643459587
N            0.65690447124316        3.38259276677478       -0.01125698398361
C            1.42018691936658        1.18751926014287       -0.00301614868652
C            1.62326267269184       -0.17418127916530       -0.00154276979914
H            3.62711456836362       -2.81295750701820        0.00329639065334
H           -0.84701572335571       -2.65613119883358        0.02067879768949
H           -5.45208243934634       -1.41111322368365       -0.02949376472693
H           -5.70435416211133        0.31858069055404       -0.03855407134146
H           -1.66020714631847        2.72414772079126        0.00220875546400
H           -0.05215681622358        4.09063205603975        0.04087060808677
H            1.61889442462557        3.66487193292823        0.03886071881475
H            2.36377925506802        1.73168210427687       -0.00941192717993
