25
 energy: -43.476944707587 gnorm: 0.000963182558 xtb: 6.6.1 (8d0f1dd)
N           -3.93912405585015       -2.30779106461331       -0.01645914194849
C           -2.97209528361656       -1.69139078812880       -0.00794953271885
C           -1.73032836476377       -0.99513241788015        0.00251618238063
C           -0.65626620765293       -1.93773787540702        0.01443143070813
N            0.63174014027880       -1.89747062923570        0.01975564797900
C            1.54664633577934       -0.93855036373367        0.02094178408065
C            2.89590908277947       -1.28346299889220        0.02059561786554
C            3.62164767966213       -0.07651833486504        0.02202495473044
N            4.95972408028601        0.07029449898265        0.05854377359582
N            2.81042595365812        0.99275204556513        0.02418265981691
C            1.53849055156257        0.54730327319268        0.02333266516360
C            0.54782418819996        1.51233906381306        0.02072670540425
C           -0.83832821504033        1.48648837611515        0.00977070757039
C           -1.57187476904610        2.67390588560411        0.00497904527511
C           -2.94241281037663        2.38611440928745       -0.00913701871794
C           -3.11009389419417        1.01763815775540       -0.01325321219007
C           -1.84069077316024        0.38598197239429       -0.00105272651587
H           -1.01836290617676       -2.96773210908926        0.01749639839397
H            3.29370360943273       -2.27819158984932        0.02003078085964
H            5.33384994187301        0.99605766743435       -0.05482804046129
H            5.55489862134286       -0.72136666246229       -0.10518639417997
H            0.96785302476800        2.51359645222030        0.02585323145804
H           -1.14003411272960        3.65756825089478        0.01086548312191
H           -3.73205964808910        3.11548139829530       -0.01583727658521
H           -4.04880223482667        0.49572264810211       -0.02315360488633
