23
 energy: -40.040341150856 gnorm: 0.000274454220 xtb: 6.6.1 (8d0f1dd)
N            3.32365415395715       -2.76126251975885       -0.00352938130521
C            2.89494312180306       -1.69560951336412       -0.00233908008041
C            2.38454712067159       -0.39597062072368       -0.00142682655639
C            3.13746401431492        0.79842751666407       -0.00132281506324
N            2.36702920017858        1.86369496664481       -0.00009829177962
C            1.06953463864120        1.45318088893781        0.00065084715293
C            0.13320860507747        2.47182459938065        0.00202531742681
C           -1.25634131463127        2.55228120916768        0.00317676155246
C           -2.27868905683278        1.62403352621942        0.00340156561188
C           -2.35715898580671        0.23073615813154        0.00258403605870
C           -3.59445225490899       -0.42453847474540        0.00312880462639
C           -3.33111001282251       -1.79723976705241        0.00202679809692
N           -2.03389116297214       -2.05619558301483        0.00086059912286
C           -1.37351127960896       -0.87314255828395        0.00111402667652
C            0.00106791823104       -0.95560690131455        0.00000221852922
C            1.02364812916407       -0.01251506580132       -0.00020942407131
H            4.20916306468651        0.88341825006605       -0.00211251301406
H            0.63200668759003        3.43605203706943        0.00227035449777
H           -1.61368456095601        3.57638032099994        0.00411413825239
H           -3.26636548600066        2.07763997718843        0.00446413345628
H           -4.56134419062858        0.04142428431360        0.00418811806686
H           -4.04681956320616       -2.59974778162904        0.00205578630084
H            0.34377611085914       -1.98722504879530       -0.00092486055863
