28
 energy: -52.241527903555 gnorm: 0.000764009788 xtb: 6.6.1 (8d0f1dd)
N           -5.33782353596999       -0.14441579351216       -0.13279494544974
C           -4.33127192228640        0.41040820202819       -0.11008147586589
C           -3.09064842991197        1.04563556428096       -0.07971827886558
C           -2.83374625823950        2.42303436731424       -0.10228855924916
N           -1.53733475799419        2.68388968706011       -0.04457978391633
C           -0.86992518892992        1.51014933531158       -0.00186822707041
C            0.51065236466151        1.58915734166565        0.06205413605535
C            1.53642139332038        0.66441326760519        0.04581548675848
C            2.87756794381266        1.12636338566021        0.05319182094211
C            3.27821382691626        2.46315858022662        0.14197039603601
N            3.62614123957322        3.55528645047062        0.21740491438778
C            3.75263157200423        0.03107541052996       -0.05800368058653
C            2.99956296271512       -1.11816878945530       -0.13023171161278
C            1.61548995852276       -0.80752184604948       -0.05085712034513
C            0.67995534175004       -1.84470139039546       -0.03302572951322
C            1.29515377691386       -3.12414443098187       -0.17103016578112
N            1.74917498665313       -4.16995868034569       -0.30300986672736
C           -0.73653082795630       -1.95287776752957        0.10708169915511
N           -1.21727172761719       -3.22006376138093        0.27719599744696
C           -1.74063062137328       -0.97774248903713        0.07305828103950
C           -1.81998462156033        0.39775291495885       -0.01696344251622
H           -3.55767533354964        3.21572482990172       -0.15487652513607
H            0.84464633087621        2.62254132430542        0.10247384862979
H            4.82464740294897        0.09491175434059       -0.08207054834421
H            3.40316253800016       -2.10917153392635       -0.21533764956237
H           -0.61005186106264       -4.01992270736873        0.23676297731890
H           -2.20865661336447       -3.38211189762930        0.27112815885507
H           -2.73160418855273       -1.42725609734795        0.11866575571706
