29
 energy: -56.755505771449 gnorm: 0.000794592816 xtb: 6.6.1 (8d0f1dd)
N           -1.15559238771350       -4.58080323363631        0.73142812112781
C           -0.73431026143996       -3.52774242229868        0.56195363671872
C           -0.19529326544511       -2.22649540829170        0.39084948365529
C            1.18179552455826       -2.17560229554501        0.62616817622934
N            2.07759608821539       -1.31658886298076        0.23726935092037
C            2.16548428436067       -0.05308543154346        0.00891064319507
C            3.40541512430897        0.53191853577594       -0.41993394566648
C            4.49280152273709       -0.18572439329782       -0.92460779651568
N            5.38687535108787       -0.76569578190537       -1.35230438158977
C            3.34942400333148        1.90031967905225       -0.17446791125858
C            2.09323016888619        2.23047429854798        0.34030323395329
C            1.28592959097217        1.08795718105704        0.38181502550383
C           -0.11203545172287        1.14328237522342        0.46990222574686
C           -0.58043043067556        2.43475418206112        0.84884472198150
N           -0.89210540049753        3.45488259435213        1.26810109725605
C           -1.11252057783267        0.22373676458872        0.12566982124847
C           -2.42517188509506        0.65244541410588       -0.17852177713719
C           -2.96110687616015        1.93925505534725       -0.27044346836760
N           -3.53983987920718        2.91982377806685       -0.43194759867384
C           -3.21630837617938       -0.47440149236113       -0.54298534288037
N           -4.49539094564716       -0.42354639536622       -0.93469207216970
C           -2.41127336197994       -1.61443506577591       -0.41609245319610
C           -1.12871154761956       -1.24751965264541       -0.01234468099656
H            1.62219780111310       -3.07713466800837        1.04638981009448
H            4.15130814225608        2.59312476242353       -0.35386729010786
H            1.78080439517813        3.22161766316563        0.61186591067250
H           -4.98747067532302       -1.26394559918858       -1.18069647809668
H           -4.97281439253887        0.46131401844495       -0.97713939405986
H           -2.73781810782766       -2.62176740946238       -0.59472497248444
