28
 energy: -51.441929094357 gnorm: 0.000810940226 xtb: 6.6.1 (8d0f1dd)
N           -3.54786758853023       -3.18244555015155        0.00578877664718
C           -2.63453479781611       -2.48990435612807       -0.05736474580788
C           -1.47369643371886       -1.68077155255401       -0.15552071086570
C           -0.33204742786962       -2.47234203716657       -0.46117555019800
N            0.93368799815755       -2.31301500674023       -0.29980929805779
C            1.75147900738047       -1.30979783838211       -0.05848745748116
C            3.08247130252483       -1.51085064880551        0.28683990200258
C            3.72061713051950       -0.25831742825394        0.16998687964897
N            5.01650343002882        0.01819132781109        0.37328633892704
N            2.87012295244496        0.70795241881544       -0.21586204253314
C            1.64759103414639        0.16100230173379       -0.29320169325185
C            0.56517028971427        1.02487857577194       -0.43174407099754
C            0.98831957397860        2.36896318029688       -0.63980119821086
N            1.30233207096111        3.45323764069059       -0.84227603429980
C           -0.82255614716551        0.87570929553949       -0.23741555563262
C           -1.65265996941425        1.98052079362430       -0.16287277815710
C           -2.96756065177409        1.57091551665356        0.17644942963422
N           -4.01338996749136        2.39596542635169        0.35467560464262
C           -2.97090960509258        0.18113491166176        0.29342393425386
C           -1.68994825098513       -0.31532692733564        0.01310213232132
H           -0.58084600531174       -3.47909372424280       -0.79868348974719
H            3.53904479017572       -2.44488650885806        0.54392952929724
H            5.64463766227159       -0.67798615063360        0.72857013823368
H            5.32864670391363        0.96358301347595        0.24089591768175
H           -1.34866624215590        3.00027114770548       -0.30630703292058
H           -3.90828347652396        3.38518022806845        0.21912712772728
H           -4.91585510801852        2.02680197815398        0.59254491210140
H           -3.82727324764188       -0.42306844371556        0.52619207453699
