28
 energy: -51.436468492865 gnorm: 0.000633600518 xtb: 6.6.1 (8d0f1dd)
N            2.88793816132388       -2.95882394144260        0.27592106645832
C            2.01393677186858       -2.21881807415552        0.20306080130800
C            0.87116587516393       -1.37941682277821        0.18668147188172
C           -0.30739274092970       -2.11678117535588        0.44933288788707
N           -1.55984807147565       -1.88227098268138        0.22387288202633
C           -2.32374802860011       -0.83995353609481        0.05914471517513
C           -3.65528225832606       -0.96231091503768       -0.33539202148754
C           -4.29574030856893        0.28010932125492       -0.20290517351566
N           -5.59005801677475        0.53010784615628       -0.48071333239162
C           -3.35822603978994        1.23420608247185        0.24170477157660
C           -2.10825795502675        0.63333247960621        0.35926084544230
N           -1.03713326077325        1.36134235912752        0.53261891802397
C            0.24541927711051        1.16826604487245        0.38681990312421
C            1.10281056521170        2.27771706787033        0.45194922617656
C            2.37978113426563        1.91485948210521        0.03394319504422
N            3.45712335442095        2.70647245657334       -0.09447962398525
C            2.37428619741127        0.51470078319342       -0.25922114710474
C            3.50277054249191       -0.11610054833171       -0.78203154469794
N            4.47981492466487       -0.50178883946359       -1.25235630167239
C            1.10264192143584       -0.01281774193701        0.02017688553668
H           -0.12836028387578       -3.13952799973818        0.77865164353943
H           -4.11797904464335       -1.87876331988076       -0.64931175930341
H           -5.99019967089522        1.42153039060226       -0.24907246074852
H           -6.20406591896255       -0.22421721600007       -0.73043733386143
H           -3.55690733145678        2.27273712682623        0.42524360233712
H            0.78168447974724        3.26446172297847        0.72299840334070
H            3.40645493544035        3.68145693678829        0.13808219758515
H            4.31933192024344        2.32284712687362       -0.44164258329481
