27
 energy: -51.732646494351 gnorm: 0.000965061966 xtb: 6.6.1 (8d0f1dd)
N            5.11479400514984        1.17820535509182        1.28903820179566
C            4.30550671166812        0.46774916535155        0.88803407026998
C            3.32549983503937       -0.39743198383615        0.40329102581707
C            3.46423763399707       -1.76229528585633        0.10564948049542
N            2.35511148876803       -2.30829838879751       -0.37305652556118
C            1.39669271410781       -1.35963965278670       -0.37824806453141
C            0.08717752481249       -1.74412596030265       -0.54154440718419
C           -1.12603214032999       -1.09583665269497       -0.30378534755660
N           -2.21664511346553       -1.86096200016641       -0.30407497543659
C           -3.27353952573749       -1.10270505219114        0.05964517795837
N           -4.49923871967574       -1.62743420724990        0.15639372999316
C           -2.88884126636174        0.23238674859911        0.29871088493461
C           -3.73187377778402        1.27739028202816        0.65826071338821
N           -4.44209173823826        2.13482318417087        0.94922090528048
C           -1.49034956056216        0.30343437892785        0.04001422358166
C           -0.83355199411773        1.50517942196127       -0.02594423704278
C            0.51212744347956        1.84339630889978       -0.33980913112571
N            0.72309426511949        3.09520840450126       -0.81680558485037
N            1.60704412889427        1.17676173591149       -0.09110217096395
C            2.00190210841418       -0.05200282140789        0.02402102493054
H            4.35583785494085       -2.35228746731858        0.22545408199034
H           -0.03620658638902       -2.80178144699003       -0.74626249183077
H           -5.27899163783519       -1.06075131462942        0.43890611340016
H           -4.62605691154053       -2.60144509475461       -0.05348011361018
H           -1.46550228353178        2.36878178975031        0.16293154490252
H            1.67278268318879        3.41268293786894       -0.90911929104148
H           -0.02507796331102        3.76260095242165       -0.87158253440318
