23
 energy: -44.822707632825 gnorm: 0.000593933368 xtb: 6.6.1 (8d0f1dd)
N            4.96031507006648       -1.85801248888143        0.00017010297702
C            4.18025787690810       -1.01550954812283        0.00026060096170
C            3.21814956558973       -0.00221850867620        0.00020133561278
C            3.44659864150264        1.37874579925499        0.00028554844643
N            2.31228728057236        2.06874614619304        0.00008795190574
C            1.28569125398955        1.20292573030716       -0.00012410977805
C            0.00974323037886        1.74881185896595       -0.00032675990230
C           -1.25462884509242        1.19325565770950       -0.00037983931651
N           -2.29633064991416        2.04707895061420       -0.00020992329283
C           -3.41973809714956        1.34553904387974        0.00039332295134
C           -3.18553442375554       -0.03849926229862        0.00068200129546
C           -4.15114026266382       -1.04894399802596        0.00182911980662
N           -4.96304376482412       -1.85995329266079        0.00020091713457
C           -1.77252409054296       -0.20800117302357       -0.00011384980862
N           -1.27012095940288       -1.41422246851132       -0.00048701050837
C           -0.07598001792898       -1.93519142151956       -0.00095756428349
C            1.23775290918494       -1.44261290436299       -0.00050477769444
C            1.80346003309716       -0.18140317893562       -0.00006373763932
H            4.39791651657273        1.87905072048799        0.00043047570080
H            0.00835956818909        2.83376453439978       -0.00020523280566
H           -4.37560318472481        1.83812326108465        0.00077755041877
H           -0.13071406284307       -3.02293222494756       -0.00166181475937
H            1.97935097419070       -2.23742047583054       -0.00057260252234
