27
 energy: -52.505443990611 gnorm: 0.000898138742 xtb: 6.6.1 (8d0f1dd)
N            4.75780511195043       -2.33058155474362       -0.17105641312160
C            4.13741817913837       -1.36446690422391       -0.13673908662018
C            3.40393850785821       -0.17805798782316       -0.10481123235109
C            3.91051985765730        1.13522559552384       -0.23986256586188
N            2.96912185566475        2.04901367795211       -0.16467760206493
C            1.77191290259833        1.41640713873266       -0.01351661579804
C            0.65597557001353        2.21338019613880       -0.04469077408097
C           -0.73826014291622        2.03727910442229        0.05971909992934
N           -1.42518789814241        3.20992912659747        0.11611730904240
C           -1.52628408231746        0.85376361047631        0.07135131665476
C           -2.90406768102345        1.12437757487133        0.30806045804351
N           -3.97868140357404        1.40507935798729        0.59804586401028
C           -1.25233059298268       -0.51728758869076       -0.04372455064844
C           -2.27739947708255       -1.47000543540932       -0.19039092153685
C           -3.57326298551025       -1.26809020391543       -0.68172086456499
N           -4.62224561466839       -1.18326969765340       -1.14198188058162
C           -1.77607321630832       -2.76862235372177        0.10408324911785
C           -0.45317001415782       -2.67246185141219        0.43152394479290
C           -0.01908426751689       -1.32538750348759        0.25908256504758
N            1.24123938607057       -1.07765960224475        0.28450395055936
C            2.00829198490879       -0.04011643213539        0.07403250854957
H            4.94167425088351        1.41045947517911       -0.37079668145876
H            0.94119226950941        3.25319257924733       -0.18023707015903
H           -2.42933156695496        3.22614967684897        0.17124460565425
H           -0.92771657454704        4.08157535605192        0.14804008429905
H           -2.36688283809210       -3.66483855750176        0.05499131367130
H            0.21576084304734       -3.47009720277129        0.68957066508043
