25
 energy: -47.496703383676 gnorm: 0.000546606374 xtb: 6.6.1 (8d0f1dd)
N            4.68175520297495        0.52200754716141       -1.72478851049972
C            3.81961863650118        0.00278549144065       -1.16940520632976
C            2.78375952487106       -0.64611338862794       -0.50053722973333
C            2.78939729241529       -1.96818983709829       -0.00844531176634
N            1.67832475837379       -2.30395566039813        0.61906480998466
C            0.83301772764065       -1.24368557656996        0.54433534902939
C           -0.49811833809721       -1.44285188838702        0.80050044774828
C           -1.62990607973890       -0.70408098917089        0.41908191227216
C           -2.89199849149719       -1.23798460354456        0.30838465346342
C           -3.67932530571250       -0.28399061836079       -0.41653234914245
N           -4.95714150150289       -0.43622496631800       -0.77368079952889
N           -2.99516700163240        0.81270179830480       -0.72696885090592
C           -1.76806246856059        0.67448361332508       -0.19135648759553
N           -0.99942770416573        1.70176925428476       -0.10284625684710
C            0.24724780880852        1.88207568005798        0.31381024101027
N            0.47653532274789        3.03652766508532        0.97902020301592
N            1.30650174290276        1.18716448459133       -0.03067718904957
C            1.55820696161219       -0.08805578960406       -0.07671563264938
H            3.59685379397714       -2.67317377056320       -0.10437454586888
H           -0.71668154202485       -2.43962335056713        1.16944278162947
H           -3.22519978827251       -2.20602001464927        0.62930224659026
H           -5.39850671979824        0.29710857759982       -1.30074877297238
H           -5.48248020028921       -1.24566828263105       -0.49744418005219
H           -0.26143053971038        3.71889143260361        1.00830872391330
H            1.42942319208069        3.34017692623853        1.08581944828256
