22
 energy: -40.304810107148 gnorm: 0.000245598793 xtb: 6.6.1 (8d0f1dd)
N            3.39772952953311       -2.74032402483971       -0.00187281541525
C            2.97546373048677       -1.67197270870124       -0.00163874455511
C            2.44306632745635       -0.38146217405958       -0.00194316665608
C            3.15562026861954        0.83167785433564       -0.00203542129389
N            2.35041107922975        1.87754538752885       -0.00218890688646
C            1.07185582701444        1.43324242206113       -0.00222628572527
C            0.08898218534995        2.41129103424065       -0.00229745871203
C           -1.30767106495472        2.41140330532904       -0.00235982004473
N           -2.24510290992499        1.50200381690434       -0.00254265445144
C           -2.30633279000369        0.20260964164259       -0.00249366279891
N           -3.54610947191235       -0.32036868535424       -0.00275980326002
C           -3.44107961072504       -1.64246767437507       -0.00249387333299
C           -2.11387110686534       -2.07599668923657       -0.00210166523317
C           -1.30871962383799       -0.92956546181024       -0.00210614066533
C            0.07205424730126       -1.00262355802236       -0.00201024746634
C            1.06675473662590       -0.03811020387621       -0.00209487952139
H            4.22385874605601        0.95220075325119       -0.00193360487043
H            0.53115262862703        3.40194221229338       -0.00229203402540
H           -1.74171946332573        3.41068503673488       -0.00229557354202
H           -4.32512340309809       -2.25513995132297       -0.00259003250534
H           -1.77068193018084       -3.09327629515452       -0.00184788675406
H            0.45817007022887       -2.02062139086887       -0.00191240318425
