28
 energy: -51.443945056832 gnorm: 0.000521443483 xtb: 6.6.1 (8d0f1dd)
N            2.46508537343702        2.73109026328469       -0.82855540466537
C            1.61606874932739        2.04754062590857       -0.46500920488835
C            0.49491830424027        1.24343474906268       -0.12895924064397
C           -0.68823011572238        1.98605799398692        0.05140518577559
N           -0.55333380745459        3.34550041988418        0.02163743838150
C           -2.00742064220773        1.56741333292365        0.33995469374972
C           -2.73152996147786        0.41020648380925        0.22605040432665
C           -4.13796147508059        0.39976894475383        0.42725345156122
C           -4.58061519156285       -0.85618607199059        0.08184205226339
N           -3.57692558820403       -1.67078091117826       -0.29296066270416
C           -2.43744043348734       -0.98151457190795       -0.20273508069417
C           -1.25774951596429       -1.68196304950787       -0.39324607370901
C            0.07802604202902       -1.37782485876777       -0.21653661753284
N            0.92701758636082       -2.42752497194201       -0.23435469838723
C            2.15286956199110       -1.97323254901531        0.00153047441230
N            3.21704104418546       -2.77566788400542        0.10640806767532
C            2.16428573011558       -0.54507615917378        0.11771329586179
C            3.32680443886606        0.15386260274829        0.43678078016411
N            4.33800678820349        0.60425204365971        0.75002286943309
C            0.83311419749100       -0.12438498663925       -0.02210571223916
H           -1.36733614731125        3.93184464731132        0.03469856366242
H            0.33156402056874        3.76564201331723       -0.20492183819301
H           -2.62896162042802        2.40847560560075        0.64178586563892
H           -4.73307157708005        1.23170064147283        0.75094702435892
H           -5.59140818464346       -1.22339005201280        0.08766013887818
H           -1.42348773850688       -2.72962364754568       -0.61805004952976
H            4.12435281385739       -2.39274201887930        0.30603100656686
H            3.08773942945848       -3.76861081675818        0.03019400097724
