22
 energy: -45.090026524441 gnorm: 0.000421667474 xtb: 6.6.1 (8d0f1dd)
N           -3.02548986131726       -3.43601098116329        0.04179044442964
C           -2.17337041367698       -2.67505359566998       -0.03283508618266
C           -1.07416708225202       -1.78227526286905       -0.14173621889662
C            0.18472452914826       -2.40281806435198       -0.28759787038240
N            1.35882781205130       -1.96809902465167        0.03636541147368
C            2.11012632026603       -0.96513295920876        0.18512693904444
C            3.42305222007187       -0.80012665808056        0.62138907275384
C            3.93353370338440        0.28793289398703       -0.09131094186982
N            3.04626672925704        0.92502947908108       -0.85302419158280
C            1.85477090218893        0.41197580025130       -0.57879404768919
N            0.72967279970114        0.96813662489204       -0.58191660689047
C           -0.52526549874207        0.77419086514796       -0.25091430933804
C           -1.38092360111386        1.83507113813643        0.09836375512185
C           -1.05204806787665        3.18932225494709        0.20181731488957
N           -0.80277745559569        4.30450962039682        0.30840271236827
C           -2.66700605549551        1.26307131014078        0.27202980850459
N           -2.65765594924134       -0.04151179393151        0.12513733502636
C           -1.39098305755237       -0.42928527473164       -0.13625350776451
H            0.17792415498515       -3.43665996956123       -0.62272100427248
H            3.94627046330669       -1.42738163300618        1.31469422143971
H            4.95774755712640        0.61740764497498       -0.09482651111874
H           -3.57837512692821        1.79376536987068        0.47807175003482
