25
 energy: -43.462726305959 gnorm: 0.000977435495 xtb: 6.6.1 (8d0f1dd)
N            3.84698685505760        1.57034537986289       -0.19473554716998
C            2.77252938076169        1.17597420100379       -0.10248929472463
C            1.42550512610347        0.72023542641868       -0.01477585089350
C            0.49044647236559        1.79466989303758        0.04712888134250
N            1.04028732374459        3.04910864548604        0.15176226810217
C           -0.90632158606531        1.79167799460256        0.03989330651456
C           -1.91923346866803        0.85122521605581       -0.01157376999160
C           -3.27107372576298        1.23542035771093       -0.03857469034652
C           -4.02696527546578        0.06715035861312       -0.05994163197341
N           -3.27693074903614       -1.02846133215252       -0.03769066018169
C           -1.98574856949432       -0.64150990436347       -0.01290048258480
N           -1.09958254010595       -1.58918890788189        0.01569380845567
C            0.19776295012892       -1.65913232644820        0.02539593519035
C            0.78911541062411       -2.93445484409348        0.03706477788611
C            2.17226079859019       -2.81000898677655        0.01387532065896
C            2.50518816574575       -1.46267804913754       -0.01694951878625
C            1.33805823353944       -0.67106392249562       -0.00304109243516
H            0.44974709650068        3.85328193359269        0.03946440108080
H            2.02967975862014        3.18276511119016        0.03553014143214
H           -1.30578288062025        2.80425068983074        0.07720019970609
H           -3.64588637959861        2.24187813595287       -0.04476892166224
H           -5.09945826717114       -0.01238301213065       -0.08907644350419
H            0.22064104386729       -3.84358253923818        0.05661870522390
H            2.87727819964737       -3.62137054185125        0.01924766034532
H            3.50930398569168       -1.08042162318855       -0.03517934038458
