22
 energy: -40.299248904887 gnorm: 0.000416073453 xtb: 6.6.1 (8d0f1dd)
N            3.60426734369727       -2.20767727455503        0.00210114714773
C            2.62172681940202       -1.61898751295518        0.00112231504475
C            1.34775952435526       -0.97935786392507        0.00116592470021
C            0.28288810254809       -1.92583410025161        0.00339621576041
N           -1.00644009920778       -1.87113951356987        0.00414052491394
C           -1.91416953606761       -0.91127796554801        0.00303785397857
C           -3.27118070085491       -1.25149998943159        0.00449863522264
C           -3.98881440412573       -0.05091366814577        0.00274535831146
N           -3.20124204783166        1.01275738807524        0.00032936762045
C           -1.91499048515647        0.58168697381555        0.00034838869886
C           -0.94452335389044        1.55303768071630       -0.00193566751125
C            0.45037317355876        1.50961394894877       -0.00263901160056
C            1.23734209440810        2.65852685364239       -0.00510712996586
C            2.57940386884865        2.23621630489777       -0.00510418056715
N            2.68844586350669        0.92375946009905       -0.00286259339279
C            1.43211622991699        0.40303158519083       -0.00125052142836
H            0.64145573444126       -2.95593641282047        0.00489094605785
H           -3.66472030777054       -2.24808726881806        0.00653508525682
H           -5.05784946983870        0.06857178963226        0.00315953925040
H           -1.36136525009154        2.55574275882111       -0.00346947753238
H            0.88613182824794        3.67200349500388       -0.00670728819423
H            3.45797676990422        2.85567679727735       -0.00668773937124
