25
 energy: -43.483196827249 gnorm: 0.000898023137 xtb: 6.6.1 (8d0f1dd)
N           -4.54142597102355        0.80956215291940       -1.04111985617002
C           -3.63409292358525        0.18923882077286       -0.70288892510363
C           -2.54000754655011       -0.57307033960165       -0.30035854314885
C           -2.51329250524887       -1.96873238142928       -0.05998155764288
N           -1.34040049217652       -2.39448568364616        0.34748789531250
C           -0.48603313870947       -1.32906475567923        0.33538397881720
C            0.85480998025279       -1.58232269584523        0.47161661289970
C            2.00273291898525       -0.82641689852088        0.20480552924776
C            3.25413289196875       -1.42130385983482        0.17037620526787
C            4.21773076855755       -0.49894775333992       -0.30184188508588
C            3.59658992637743        0.68536859614379       -0.57022063365156
C            2.20386535526009        0.57970697500879       -0.22579620404664
C            1.42999866566391        1.69333978574457       -0.18132613644914
C            0.07354914852987        1.92081695243710        0.25268201514319
N           -0.18150755013524        3.17650555270613        0.70552255333006
N           -0.97168549297653        1.17001675634806        0.14106590405470
C           -1.24358593724307       -0.10684849494161       -0.00148957809444
H           -3.34222428205164       -2.64550386060077       -0.16958817069312
H            1.05865000507797       -2.62512226757254        0.69345536172014
H            3.45589959982860       -2.44302609000940        0.43505365908495
H            5.26286607882024       -0.71366242638934       -0.43162318203596
H            4.05558696013705        1.58652186420324       -0.93227340000756
H            1.92784464323240        2.60808232896698       -0.49021783527552
H            0.54230377871817        3.86406809028201        0.79959418861741
H           -1.12516660921516        3.40468613697550        0.96592745540830
