26
 energy: -52.789993441853 gnorm: 0.000796741677 xtb: 6.6.1 (8d0f1dd)
N            4.92994102272705        1.74540563676309        0.01935766222984
C            3.84624201575826        1.37641128810653       -0.02284251663248
C            2.48545735429731        0.98428833902008       -0.11646523581677
C            1.62314543909018        1.97073326590714       -0.65518412168975
N            0.37897756743098        2.16593892045633       -0.41604194054188
C           -0.69867451183254        1.56690856512317       -0.02910570119877
N           -1.74365096208225        2.28415073306499        0.40515779068165
C           -2.81983798348450        1.50131493494470        0.34039108864373
N           -4.03180525717586        1.92075588752002        0.69074419076274
C           -2.50173384160945        0.17928564431673       -0.14135358687491
C           -3.48662736085993       -0.78235555128105       -0.35161962036918
N           -4.39019058150573       -1.48010387196570       -0.48949196736386
C           -1.10725278247555        0.14977750404395       -0.27162086534150
C           -0.31253836633588       -1.00012187334565       -0.33806735247419
C           -1.04040778881429       -2.20100300782766       -0.57524921040405
N           -1.59950556417346       -3.17015191813008       -0.82240694888651
C            1.03430533759668       -1.21749867964827       -0.01388021405721
C            1.53629862609249       -2.49863925884391        0.25164410209328
C            2.84613675521984       -2.33892007651153        0.70433881293079
N            3.23539162360652       -1.06805490996040        0.69995884360499
C            2.21045193317635       -0.32718801693399        0.24894739409815
H            2.09376227201439        2.75584723246829       -1.24312133115064
H           -4.14235609080377        2.86201853740158        1.02684809762589
H           -4.83232847772636        1.32158150664392        0.57944027627880
H            0.99760904940160       -3.42243348746719        0.17576683706969
H            3.51974207188912       -3.10854841886342        1.03449243777538
