27
 energy: -53.308286856313 gnorm: 0.000742654507 xtb: 6.6.1 (8d0f1dd)
N            4.22123142795499        3.20049199856661       -0.12542872945843
C            3.78359723090944        2.14016172302728       -0.07069537005306
C            3.22727811062152        0.86105815558749       -0.00669598268087
C            3.92038614024063       -0.36342827241347        0.10533539669783
N            3.09218260500834       -1.38650038994209        0.14158562240651
C            1.82596694136165       -0.91248808315708        0.05761973116926
C            0.81419297035572       -1.87612969330136        0.03267273310658
C            1.33012217332409       -3.20726188523779        0.10669992408722
N            1.67831277735110       -4.29564773860615        0.16407486987884
C           -0.57378837916937       -1.84643367056725       -0.07622482295430
C           -1.55595726030669       -0.85073181550292       -0.09577734511109
C           -2.83250364754195       -1.47603255468085       -0.25805211244794
N           -3.78350887407240       -2.08561615406110       -0.44432185869373
C           -1.56962427409993        0.54700405491973       -0.00862883876858
C           -2.78472273992783        1.27329288538999        0.07891997227029
C           -4.10033317635768        0.81118952448774        0.23604643419636
N           -5.20927739442504        0.56945333304197        0.40767399721529
C           -2.51043320789695        2.65595829310817        0.06457996235737
C           -1.14927972776488        2.82672508780267       -0.03696078586326
C           -0.50208757020880        1.56585188802213       -0.05716549338788
C            0.87551579439492        1.53791314500923       -0.09535355904218
C            1.84612193639531        0.54261024442864       -0.03246944555051
H            4.98391817535758       -0.50477562673000        0.15732274727258
H           -1.00005430047197       -2.84535502067462       -0.13733026565490
H           -3.25677755791574        3.42585952034891        0.12611522689305
H           -0.63477990063846        3.76896631885120       -0.07596333802396
H            1.31257027862237        2.53286989388286       -0.14840704046045
