28
 energy: -56.239753620926 gnorm: 0.000599071322 xtb: 6.6.1 (8d0f1dd)
N           -4.75328200109029       -1.41989392442256        0.00148006491261
C           -4.00887393800219       -0.54567774490116        0.00297921774549
C           -3.14454394417878        0.55057213378131        0.00494334295614
C           -3.52108830570931        1.90627292676378        0.00708051959135
N           -2.48742951840930        2.72729738194184        0.00867448365009
C           -1.35196088320609        1.98238305205989        0.00769461931267
C           -0.17996216575305        2.69458138985932        0.00900545941166
C            1.20092503997144        2.41030989811155        0.00873461310995
N            1.98865748928155        3.51364222578208        0.01050765436426
C            1.88138923304486        1.16813299078680        0.00697816135656
C            3.30242340477343        1.27110519004538        0.00728928751039
N            4.44049857714438        1.41941894113043        0.00767223082676
C            1.49120677660237       -0.17490832934925        0.00493954605214
N            2.50123414140129       -1.05402932631003        0.00386596977342
C            1.99256631815096       -2.29460037733489        0.00187502408162
N            2.77392410058659       -3.37230550241720        0.00045392315436
C            0.56937243839699       -2.27257285813942        0.00146853384659
C           -0.23128809263197       -3.41236610361369       -0.00084937289358
N           -0.81216237616023       -4.40394618968215       -0.00144461056157
C            0.18818684788127       -0.91440952593204        0.00353350450264
N           -1.07497766377256       -0.59117823046208        0.00366928099854
C           -1.72729924609735        0.53328636591209        0.00528377535939
H           -4.52630276607066        2.28938728776343        0.00744845405788
H           -0.39126275600840        3.76098064788624        0.01065925381062
H            2.99170889739693        3.43013562892864        0.01049743477365
H            1.57608426958439        4.42964637558164        0.01183269778836
H            2.37245606643628       -4.29420104081957       -0.00101087208407
H            3.77189718853740       -3.24825661965035        0.00088125359208
