28
 energy: -51.457973184121 gnorm: 0.000585917055 xtb: 6.6.1 (8d0f1dd)
N            2.26607917270500       -4.01286356396378       -0.02437897658437
C            2.37946529934724       -2.86911295261202       -0.01151411469979
C            2.53308016903085       -1.48326742324647        0.00085704577338
C            3.74862950140392       -0.77977837133909        0.01629426772467
N            3.57096012497709        0.52842244937555        0.02220045998054
C            2.23457593856196        0.77376056237515        0.01219216310133
C            1.89071664884451        2.10701709159508        0.00959399653901
C            0.70491464438369        2.85934447713001       -0.00015141018948
N            0.90331642670214        4.20950118147483        0.00495614496919
C           -0.64169941258727        2.47419929425038        0.00084919244081
C           -1.35723564595326        1.29328542692230        0.00315328222364
N           -2.70168613888886        1.44510870006274        0.00784379320125
C           -3.25849937359030        0.23596287318508        0.00527091517135
N           -4.58380660764881        0.05082731822209        0.00891592694514
C           -2.26751676016076       -0.79164581375805       -0.00372051443146
C           -2.54913547641631       -2.15362198727829       -0.00943009370038
N           -2.84508236671226       -3.26549754010207       -0.01423649094869
C           -1.01732800395302       -0.14152889549895       -0.00365553118186
C            0.16932562274587       -0.86188365980111       -0.00865196276746
C            1.50228996625790       -0.50576670634149       -0.00036903596226
H            4.73641819800357       -1.20506999205915        0.02291912665622
H            2.78879166976566        2.71866994052178        0.01656724843176
H            0.12428180919915        4.84035306793236       -0.04594657077360
H            1.83166471432401        4.58876303392649       -0.03867072352163
H           -1.32845446471542        3.31612891331074        0.00157588919913
H           -5.18960264769221        0.85133872398987        0.02382939966782
H           -4.96901125754516       -0.87670866879415        0.01497107831660
H            0.01197324751087       -1.93932452617958       -0.01702911638086
