25
 energy: -48.261406298284 gnorm: 0.000980208339 xtb: 6.6.1 (8d0f1dd)
N            4.70308722892524        1.55049761165578        0.49738515856003
C            3.89760408385923        0.75426831687033        0.30933659558569
C            2.95447580135950       -0.25270522287841        0.09620597031470
C            3.22075186490677       -1.64159815439654        0.01651838838507
N            2.14006557716173       -2.35587742549797       -0.19400980357194
C            1.07123100121106       -1.50943541667362       -0.20740930440462
C           -0.16467011399798       -2.09310602050231       -0.16429336426636
C           -1.50815034514047       -1.66866883372482       -0.03456674740741
N           -2.39350731081438       -2.70199097807384       -0.01971574367023
C           -2.06453337447806       -0.37593356477161        0.09978635531147
C           -3.48215075974674       -0.38147039238688        0.21674264181984
N           -4.62530424685317       -0.40262774048212        0.32331695738152
C           -1.55714367711169        0.93726512713915        0.07885776833951
C           -2.37651445512721        2.05820741488217        0.14592725496512
C           -1.58770042700350        3.16925738847411       -0.20825775690336
N           -0.34059955865199        2.85176358692600       -0.47595716490268
C           -0.19825760158873        1.52271893234285       -0.25416258827508
N            0.99160256976814        1.04952722427654       -0.24917297710389
C            1.56592422504043       -0.11075526363421       -0.10504224140237
H            4.18701479939510       -2.10763174452420        0.09263315379938
H           -0.06907501022246       -3.17591014615856       -0.17544678492135
H           -2.07058299386600       -3.64590269712204       -0.13198482932565
H           -3.38136927696785       -2.53885582661379        0.07250383834298
H           -3.41571937572175        2.08798077808752        0.41005921141552
H           -1.91477198358276        4.19181512048795       -0.27345586315055
