25
 energy: -53.059215185046 gnorm: 0.000991521678 xtb: 6.6.1 (8d0f1dd)
N            4.81571492847831       -0.04590817909980       -0.26646936560990
C            3.84121511535329        0.55920220638904       -0.24501772235745
C            2.66684623987317        1.31729439038944       -0.23355160321018
C            2.54547925223569        2.68588915160935       -0.49716175604931
N            1.29101883399081        3.13496971890709       -0.41063848030099
C            0.51231189869656        2.11825405363477       -0.05740020093402
N           -0.76107822695928        2.26554383141802        0.11770127004264
C           -1.84509643577086        1.57751877570682        0.25747168413631
N           -2.84180923920098        2.15246002920010        0.95097572135335
C           -2.16090909279911        0.29679193409852       -0.37496544863261
C           -3.50769738926811        0.16461554946565       -0.78804879796911
N           -4.61244868685217        0.12882049692938       -1.09506421818167
C           -1.38095986419765       -0.83162012745435       -0.45904611813545
N           -1.94976651889528       -2.00026330716253       -0.82293073826551
C           -1.21382822823417       -2.97424228375629       -0.32257134481066
C           -0.03848724561395       -2.51635672237608        0.31240838662007
C            0.94214001685985       -3.30402323479664        0.91776635408412
N            1.72601328204676       -3.96711406819774        1.43137568372303
C           -0.02067873873862       -1.11091123953571        0.13636523202843
N            1.03311775943929       -0.37214215188602        0.24132422078554
C            1.35740242190650        0.86418776395150        0.08276447070742
H            3.34494091487747        3.36487735456676       -0.73450513796742
H           -2.69704609650505        3.07667858487072        1.32439064425551
H           -3.76886884319461        1.75922905369373        0.94680043530380
H           -1.51005302022567       -4.00097753086267       -0.44237793921617
