27
 energy: -47.720680790344 gnorm: 0.000797085543 xtb: 6.6.1 (8d0f1dd)
N            4.67185716007518        1.74336657580616        0.16000912376315
C            3.94856503021042        0.84991575546942        0.12457862911579
C            3.04485994531097       -0.20943943335131        0.07767163062912
C            3.33747717533828       -1.58110530983772        0.08762070613617
N            2.24357279644355       -2.31969175268558        0.01631243694915
C            1.17468290078456       -1.48700896583435       -0.02292103384743
C           -0.06890956073127       -2.08816940586884       -0.09864714936218
C           -1.37450889704467       -1.63612575629637       -0.07609839158950
C           -2.42349548903444       -2.56692024896515       -0.09014058471218
C           -3.64459965750143       -1.90697015714730        0.03568682222978
C           -3.40363843892432       -0.54930039145469        0.12640326953637
C           -2.01076830856115       -0.29866457262993        0.04152562649881
C           -1.54403158923570        1.01471054425636        0.03338261624454
C           -2.59965256793918        1.95999656562365        0.19457724925466
N           -3.41779596208483        2.75042314329687        0.34814808126920
C           -0.27576854952991        1.65702336664369       -0.11182040830212
N           -0.32113155978015        3.01407597153284       -0.29601241536498
C            1.02161246042352        1.14280134697303       -0.07865483131145
C            1.62472077689905       -0.09992196901334        0.00820803917044
H            4.31137884279340       -2.03309989434045        0.14098049306913
H            0.02203425503263       -3.16868515604607       -0.15236249153302
H           -2.28944532766453       -3.62956957836232       -0.17033948542707
H           -4.61202346015340       -2.37369212288470        0.05978436883973
H           -4.16034641669384        0.20581374756319        0.22500861499389
H            0.53061632339299        3.54477234367670       -0.25036554813073
H           -1.18672060708118        3.51814800227787       -0.21304210625990
H            1.76549424725532        1.93714583149839       -0.12290351225938
