26
 energy: -52.785322709432 gnorm: 0.000929869443 xtb: 6.6.1 (8d0f1dd)
N            4.81801964950495        2.17503075219324       -0.15415584184230
C            4.14576998001725        1.25849648323350        0.00866767937113
C            3.34010280171669        0.13710965449200        0.21022584999497
C            3.71763447925062       -1.08051391580046        0.79901628127413
N            2.73452872225692       -1.97613919389221        0.84512631642044
C            1.65541390507399       -1.41692406008220        0.28718819323968
N            0.59035521982263       -2.11265294870171        0.03899182770133
C           -0.63664580622346       -1.93357385098236       -0.31971289409166
N           -1.21524441351397       -2.91950554631170       -1.03002390618554
C           -1.50696691303777       -0.83668172844306        0.10989784723848
C           -2.80847517908289       -1.29050667489069        0.43038614413099
N           -3.83344988189591       -1.76188608155799        0.64077478337739
C           -1.23481501141002        0.50846421477420        0.12579964741963
C           -2.23644260567984        1.50512629527892        0.33754402149695
C           -3.45146814532598        1.35623531768274        1.01232394164140
N           -4.44611361267185        1.30070206020799        1.58428905131049
C           -1.81015668501950        2.69755756567749       -0.26365545071821
C           -0.52537067183379        2.54070763105450       -0.76144846191560
C           -0.05287157520024        1.25200397800144       -0.45416948258746
N            1.21823240325787        0.98862908779860       -0.50317019047181
C            1.96488456398299        0.00037465140773       -0.11333198400728
H            4.69285421466306       -1.33004827797957        1.17772856350964
H           -2.21406750420484       -2.95241752604291       -1.15071205916875
H           -0.67054184516459       -3.74355134577838       -1.22580294860519
H           -2.39512169723899        3.59867378572372       -0.29947069249965
H            0.07423734275744        3.29720056803552       -1.22943183213379
