29
 energy: -55.962078248801 gnorm: 0.000526397308 xtb: 6.6.1 (8d0f1dd)
N            4.92201713674348        1.11597827570233       -0.26544895561358
C            4.03311884948258        0.39334534937296       -0.17598810264419
C            3.03474794151903       -0.58209881711290       -0.12493928829385
C            3.29409739009695       -1.95273480387975       -0.32041915988259
N            2.19833786639771       -2.68228566443916       -0.28081440011390
C            1.14117653681517       -1.84921944210359       -0.09978868573889
C           -0.06573884744832       -2.49463427980239        0.04967483855736
C           -1.42239267260414       -2.15931430742845        0.17118505935848
N           -2.24103911531296       -3.21948017642571        0.40182002196341
C           -2.06501014831550       -0.90614870470808        0.02107927987995
C           -3.48652643865061       -0.97839548589974       -0.04947528463881
N           -4.62490152406607       -1.11643520372790       -0.09875798695529
C           -1.64648295403759        0.42210435977623       -0.07521024949174
N           -2.64524384442780        1.30172046011024       -0.23474520328030
C           -2.12637296729870        2.53764786714776       -0.18013541213027
N           -2.89560891591805        3.61997567227271       -0.32609650693875
C           -0.73164596684654        2.49641044802602        0.04211022608643
C           -0.36469516755072        1.15494359729243        0.07919432268089
C            0.97955010428815        0.75576132029805        0.20789481566414
C            1.82656081331998        1.84026981723386        0.57196754357468
N            2.44330814040286        2.73038141874115        0.94941799527516
C            1.62792113334898       -0.45801694737379       -0.00016312440577
H            4.25735111057459       -2.40038027309247       -0.48645711059761
H            0.10054972909120       -3.56886248015447        0.04423360506859
H           -3.23972290870601       -3.10025641205787        0.42281298100425
H           -1.86311014462381       -4.14979144040367        0.42447293868150
H           -2.50648776382228        4.54292195841812       -0.26306278144623
H           -3.87910370238917        3.49302691403203       -0.48893279049577
H           -0.08291240566702        3.34580917697875        0.12106496047450
