26
 energy: -48.801605004693 gnorm: 0.000591174405 xtb: 6.6.1 (8d0f1dd)
N            4.50723517460428        1.19996892591067        0.00152475873819
C            3.75433166820930        0.33307767078926       -0.00033995722578
C            2.84564826018789       -0.72781760893999       -0.00175034673321
C            3.16572324566769       -2.10332483438719       -0.00369440173909
N            2.08594267191062       -2.85480674153128       -0.00478227018133
C            0.99823338700918       -2.04088561645671       -0.00357157385151
C           -0.22633422222832       -2.69128168751323       -0.00446193453875
C           -1.55274790623170       -2.29564439703588       -0.00353722122401
C           -2.21504927591129       -1.06507433742682       -0.00142780494334
C           -3.62932406171529       -1.26948458361725       -0.00096508555436
N           -4.75266597336579       -1.49345347408737       -0.00096559876997
C           -1.84006153431419        0.28736800439133        0.00032835006382
C           -2.82528214794419        1.29364781895716        0.00200218149515
C           -2.23184464171622        2.54715029402628        0.00332831626806
C           -0.84650629095231        2.37411876807520        0.00256796154051
C            0.09552989939260        3.41016336056311        0.00329038812324
N            0.85982279824858        4.26703171258554        0.00424283632440
C           -0.53938671118782        0.97835848114925        0.00076366929296
C            0.78036618947102        0.58562000964129        0.00003492976785
C            1.43253708711923       -0.64529943369901       -0.00156917477046
H            4.14955246443854       -2.53579501265961       -0.00432163777096
H           -0.08258614286366       -3.76674770037391       -0.00615439045965
H           -2.24447955168397       -3.13294193534530       -0.00460450553979
H           -3.88466027488874        1.11509070486217        0.00215052525938
H           -2.74174433098359        3.49255063147130        0.00466043571677
H            1.47460900612821        1.42499413965099        0.00094697431193
