26
 energy: -52.011717600868 gnorm: 0.000713641458 xtb: 6.6.1 (8d0f1dd)
N           -4.04940320509081        2.11867199571666        0.47552696589699
C           -3.35128639200035        1.23595341476683        0.24496869932559
C           -2.62972427475177        0.08368561469858       -0.07676634826002
C           -3.24646439766866       -1.05394638535491       -0.68256781008831
N           -2.40700436262483       -2.01810363094902       -0.92403606359920
C           -1.17468148669263       -1.61949859115591       -0.45423405599830
C           -0.24438431208132       -2.59836287054553       -0.33651965009284
C            1.05742276464671       -2.57559449212566        0.28386188996766
N            1.39954605412082       -3.67726085062969        0.98170965277001
N            1.97921811363834       -1.68470791743368        0.13181156982877
C            2.06016638656609       -0.41564886601911       -0.15061707723251
N            3.20064629870404        0.14123561114781       -0.53247764764574
C            3.00508445534418        1.46940455840255       -0.37103951167863
N            3.94725886100415        2.36305428341739       -0.64813072961118
N            1.79570628370143        1.83253764977300        0.09511155339126
C            1.09976475449830        0.69679232719063        0.17445136972158
C           -0.28023173104582        0.72454483543734        0.38070613730582
C           -0.72782813708445        2.00291491794716        0.81137325589884
N           -1.03613539465857        3.02613313818786        1.22545253943355
C           -1.26591628134189       -0.21637512433489        0.03551676122593
H           -4.28928840528257       -1.14050576541238       -0.93114176745676
H           -0.57731196702334       -3.56838203406996       -0.68651604227319
H            0.76430221523634       -4.44881031221358        1.08006551234493
H            2.31837557407851       -3.72870240265227        1.38701390286462
H            4.82643450602890        2.05431284826076       -1.02224082611074
H            3.76172496895553        3.33560203562948       -0.47779393230247
