28
 energy: -57.021605959101 gnorm: 0.000423904173 xtb: 6.6.1 (8d0f1dd)
N           -4.84534233473306       -1.44350547983690        0.62479301526081
C           -4.12713658133864       -0.56382301785655        0.45773570950647
C           -3.28240238702744        0.53312993866625        0.27501752148307
C           -3.65343915639313        1.89893287189108        0.32989618586418
N           -2.63867735165560        2.70744710487728        0.12620688345005
C           -1.51595406927773        1.95154035783668       -0.02152750476277
C           -0.32463610698562        2.62372500380204       -0.08460394039938
C            1.04493008364927        2.28995185818246       -0.17314621430883
N            1.84537582651395        3.37086461947868       -0.35863374864701
C            1.70741037863222        1.03823340780114       -0.03864773896342
C            3.11982269319436        1.15677147599145       -0.18133680222722
N            4.23962766808692        1.31453867431597       -0.37632165625661
C            1.28897694913164       -0.29165621698739        0.11902734927492
C            2.20183549000340       -1.34680131908480        0.32551055842737
C            3.48904707783296       -1.27841401851016        0.87809812639997
N            4.51602734596122       -1.30285636185451        1.39028758097498
C            1.59464940358991       -2.58324826641105        0.00182190101520
C            0.29085602770948       -2.35698233648393       -0.38633653812217
C           -0.63721513304365       -3.32350563212543       -0.79564287268920
N           -1.37403788997601       -4.12642816561134       -1.15274058534554
C           -0.01157561408372       -0.95866355403235       -0.20994454244032
N           -1.23687769011509       -0.58514577068873       -0.20661242990476
C           -1.89697892002344        0.52035011085323        0.00807425586388
H           -4.64482144168865        2.28199572528805        0.49251077455570
H           -0.49401109120815        3.69593122592624       -0.03449974628248
H            2.84620292329411        3.28037045797738       -0.41033702538798
H            1.44004865362550        4.28397944285158       -0.46321990150101
H            2.08199096972181       -3.53909833555596        0.06427509866339
