21
 energy: -40.580718910674 gnorm: 0.000691463639 xtb: 6.6.1 (8d0f1dd)
N            3.42628766634122        2.73335158065469       -0.00062125330232
C            2.97403521495493        1.67834022384569       -0.00166449851721
C            2.42725033538767        0.39198473234715       -0.00244354790862
C            3.14528613399628       -0.82606754742233       -0.00387564367222
N            2.34771817719513       -1.87103261785815       -0.00429433857832
C            1.06259843398830       -1.43087100064228       -0.00316782442930
C            0.09301208891924       -2.41074409157606       -0.00323314408578
C           -1.31537128101617       -2.43343668722029       -0.00211522114508
N           -2.26224028913263       -1.54756278805090       -0.00168503875257
C           -2.31522563358900       -0.23633239867012       -0.00085776827473
N           -3.52954474964773        0.32639269674688       -0.00096578488564
C           -3.31932002808614        1.64098865456756        0.00089238396467
N           -2.04968626894475        2.02997592956162        0.00191818002445
C           -1.32371025959343        0.89539018844258        0.00068372799877
C            0.05342898060339        1.00440704041898       -0.00013679728063
C            1.05857126397471        0.05030107359980       -0.00184161516540
H            4.21436874998627       -0.94062952041872       -0.00456925371988
H            0.54267055460809       -3.39838748368911       -0.00417478659352
H           -1.72605995220196       -3.44261905195276       -0.00173237164999
H           -4.12982457881332        2.34667433040338        0.00158279209768
H            0.39600759596965        2.03605190601285        0.00029516647529
