26
 energy: -47.989496081164 gnorm: 0.000546177073 xtb: 6.6.1 (8d0f1dd)
N            3.29073235484705        3.12752533983610        0.18879557041482
C            2.36252828241210        2.45335660482263        0.17299751362857
C            1.18279362035971        1.66373360818840        0.17939611613731
C            0.03597704348150        2.46437644323852        0.41922650473443
N           -1.21383101520301        2.30413147719508        0.15008303496653
C           -2.02901029199102        1.31270372898890       -0.08979010810765
C           -3.35863118843549        1.50982703961375       -0.49930278119421
C           -4.00211105719171        0.28732391247891       -0.34622565271226
N           -3.19194689722582       -0.67418392456324        0.09973988946669
C           -1.95847975753701       -0.14956538259853        0.19932275315920
C           -0.89030423871167       -1.02664586890598        0.34706442974069
C           -1.32633544920811       -2.37057767121855        0.54255941827515
N           -1.64261209046099       -3.45366142702479        0.74194704373492
C            0.50031864066482       -0.88515541307408        0.17507867550042
C            1.32158655569491       -1.99969210291339        0.09226975457038
C            2.64833224965345       -1.59931625643281       -0.20326717382179
N            3.68826138681096       -2.43003765615083       -0.38134531746697
C            2.66748116328995       -0.20517752447693       -0.28175621768144
C            1.38442899413922        0.29898066806057       -0.02485845524260
H            0.26218979699363        3.47082647475666        0.76979332530597
H           -3.78701798923911        2.44071509637853       -0.81156680336312
H           -5.03878046975308        0.06744050843376       -0.52850802331688
H            1.00128975949347       -3.01829848831832        0.20613574335197
H            4.60426621183591       -2.06413961508500       -0.56943965085738
H            3.57292568751593       -3.42026190956045       -0.26097773632599
H            3.53552366027107        0.39533093372157       -0.47857416859250
