24
 energy: -48.545492093512 gnorm: 0.000954003849 xtb: 6.6.1 (8d0f1dd)
N           -4.35812551694457       -2.08301014445278        1.11439569468642
C           -3.71440879364381       -1.24416932695975        0.66650607860899
C           -2.97605416849010       -0.18917019967510        0.12826384799301
C           -3.51948208385554        0.96010845912467       -0.52014243438563
N           -2.60889155529735        1.78231371030880       -0.96195059020521
C           -1.39068032886223        1.31161958772287       -0.53361763373080
C           -0.37629455384639        2.20321574300944       -0.44360558238678
C            0.90670109786456        2.07456155417159        0.21774009313395
N            1.37389014997749        3.18712077054770        0.81823922474323
N            1.70611861849631        1.06147782035945        0.17754000464812
C            1.66073823551163       -0.23153166720001        0.05451004854159
C            2.75884298895244       -1.04864736407195       -0.25138571650624
C            4.06192122388074       -0.62756829913454       -0.52258265403254
N            5.12987870133822       -0.27280641467082       -0.75259608252128
C            2.29565802211176       -2.38490164562955       -0.13895728418385
N            1.01515883623885       -2.47359768146179        0.13888478719110
C            0.51682801298011       -1.22151786547008        0.22073199247783
N           -0.75588629684732       -1.05003077146236        0.27460342604094
C           -1.57962735065437       -0.05952249220990        0.05388555316090
H           -4.56609070009085        1.15441133597157       -0.67653007652357
H           -0.60721887611657        3.19237645982635       -0.82152249326299
H            0.86401627617332        4.05135805136011        0.78134508652364
H            2.28850121921525        3.16692194950352        1.23742545175479
H            2.89723158100666       -3.27020248330841       -0.24721738596689
