31
 energy: -49.810548247465 gnorm: 0.000991767146 xtb: 6.6.1 (8d0f1dd)
N            5.01899028079217       -1.18077515017986       -0.33110209329259
C            3.91159857323721       -0.88770741732730       -0.21037990224665
C            2.57812700353197       -0.51978682990238       -0.06254778071504
C            1.49899215268029       -1.38315810597118        0.17004552181939
N            1.63160596635406       -2.73475100246729        0.24867101930029
C            0.28979995265336       -0.62026660404284        0.18076286774341
C           -0.91312374878998       -1.28908878488500        0.25836814537639
C           -2.25601701789388       -0.96626627534293        0.09992041610649
C           -3.22892272990641       -1.99250646348807        0.09058188142371
C           -4.47634220756786       -1.45084555841170       -0.17635940261558
C           -4.32142318667128       -0.07904073113559       -0.32933683213339
C           -2.96516191386001        0.26765019776260       -0.15843090256676
C           -2.57872604202400        1.60716178847282       -0.17883263747692
C           -1.41609591987150        2.29746902144447        0.05106865949756
C           -0.05012180763186        1.98801975994880        0.22741683153726
N            0.70574923443843        3.09787743773352        0.51530488046561
C            0.68259819117571        0.79458073337400        0.05357851428376
C            2.08220611853535        0.80345439461130       -0.13077114352558
N            2.91923321065482        1.87897464924275       -0.35246754059102
H            2.56741166960938       -3.09102761754280        0.35258754333416
H            0.89911391823723       -3.27787645780312        0.67162492486620
H           -0.79022054775897       -2.35969934931902        0.39964025931702
H           -3.01820202669263       -3.03552126847319        0.25318733292954
H           -5.40042172704552       -1.99528775554147       -0.25101472780942
H           -5.10955219658858        0.62382929671501       -0.53617049610071
H           -3.42639187690784        2.26417732450819       -0.35510571527109
H           -1.57492431494759        3.37244908171493        0.09371525537271
H            1.60633396302525        2.96042094537637        0.94373915240711
H            0.21408190599746        3.93787900331923        0.77240710455194
H            2.52215378990876        2.63708933578317       -0.88866593283310
H            3.84008217812595        1.60516532512601       -0.66897539855462
