24
 energy: -43.758873126975 gnorm: 0.000704567173 xtb: 6.6.1 (8d0f1dd)
N           -4.06291504750272       -2.01832677093464        0.60856062668542
C           -3.39887300529462       -1.11564798472484        0.35186515186672
C           -2.58743413387564       -0.02402390472104        0.04667273182527
C           -3.01948016478959        1.24896552275731       -0.39707081359922
N           -2.02010735040130        2.06809814046502       -0.61634618123609
C           -0.86077729263754        1.40627766171091       -0.31386562512441
C            0.27408225089401        2.16740989519246       -0.26570924905145
C            1.61658896770320        1.84764895025023        0.09200467181748
N            2.36316133481717        2.86031531915052        0.59401865932716
N            2.27732385419050        0.75014604276303       -0.14016673015900
C            2.07577805012353       -0.52357373677889       -0.26051089843710
N            3.09407633164943       -1.30190551237136       -0.65757563933870
C            2.73730877736578       -2.56511353490742       -0.41847560321562
C            1.46030953811827       -2.68495170242834        0.12370344964250
C            0.92632016297253       -1.38852999775516        0.17578115854885
C           -0.41491816733387       -1.11596306907143        0.34160278350829
C           -1.17603263074856        0.01942111655522        0.08132523855094
H           -4.03783015643142        1.55850093395238       -0.55136173746966
H            0.09631412072529        3.21039556695391       -0.50283309678324
H            1.99373185391191        3.79074220696404        0.66732260459915
H            3.34519309072023        2.69946095359073        0.73778554059465
H            3.42282259334535       -3.36281165014566       -0.64502230205720
H            0.96096792404848       -3.59303083127213        0.40025837369490
H           -1.01713686757277       -1.98872670859433        0.58580677630920
