26
 energy: -47.995867604281 gnorm: 0.000519838337 xtb: 6.6.1 (8d0f1dd)
N           -3.34760573365104        3.07112913485745       -0.55944584477727
C           -2.38837430931556        2.46252536077571       -0.39823320448822
C           -1.19597346683676        1.71737787941626       -0.21950294626010
C           -0.03865136572047        2.47411928570103       -0.34653189891210
N            1.19323116399272        2.25833890713307        0.04345542404235
C            2.00318827474604        1.27306289797824        0.18466323314448
C            3.34718842620572        1.50499378338855        0.61585035258243
C            4.09177611539299        0.38922051058456        0.34594920342332
C            3.25602144733212       -0.62505059749857       -0.18168003670866
C            1.94986411396525       -0.16776679891805       -0.23510225998695
C            0.83869722749303       -1.01534151953058       -0.36719753386828
C            1.16276183375384       -2.38238175169076       -0.60726053693166
N            1.46201187398420       -3.46337690087346       -0.84194006695449
C           -0.52478264998329       -0.83362238344532       -0.13567774716753
N           -1.25900505447132       -1.95909570387297       -0.03462719561525
C           -2.51368067325893       -1.60581758441567        0.25636226676146
N           -3.46607895007599       -2.52299234187091        0.46878719329940
C           -2.65519724877535       -0.19446191053753        0.30738370638965
C           -1.40519521267283        0.34111956835186        0.05088643285573
H           -0.18684012023943        3.50060386752721       -0.67806193850797
H            3.69101877851905        2.44527937348761        1.00038564567413
H            5.14909222917143        0.28083377696547        0.50748137987725
H            3.58258462598936       -1.61010315271767       -0.45956184793562
H           -4.41805207358845       -2.24957492380546        0.62843195218204
H           -3.23223442652763       -3.49213725074763        0.34405963751774
H           -3.56376193572559        0.34404443866922        0.49380211016148
