25
 energy: -43.481647044344 gnorm: 0.000493542947 xtb: 6.6.1 (8d0f1dd)
N            4.63266690409730       -0.87293636083559        0.71791832320744
C            3.72934036268813       -0.19572426957801        0.49733328017105
C            2.61647555479918        0.59576851075725        0.22490597879121
C            2.57771013152886        1.98120736645382        0.03029364609108
N            1.35391909967110        2.41400423602341       -0.23539859412151
C            0.51546471057580        1.35339487886653       -0.21242581672967
C           -0.83380042166501        1.63026588855535       -0.38195252136841
C           -1.98047203363975        0.87835119041167       -0.21565365052148
C           -3.24853018692321        1.46256017945145       -0.16150633620666
C           -4.17943136351282        0.52666872251755        0.30839718610187
C           -3.54584355099235       -0.67914341306995        0.52879118879170
C           -2.18250784097148       -0.55964813085242        0.16006638221049
N           -1.44868802901065       -1.62229951987593        0.06612119020735
C           -0.20126355207955       -1.94227145101367       -0.20622508757109
N           -0.06239025649915       -3.24163244841930       -0.60013739241285
C            0.99482904271271       -1.22067522187395       -0.01180438416253
C            1.27804381630413        0.12694008059634        0.05351424203593
H            3.40729916330214        2.66361569525848        0.07745456026631
H           -1.00449009240242        2.68576910701113       -0.57065579757344
H           -3.46309504594328        2.48613182991785       -0.40886053361617
H           -5.22451977367562        0.72343503986524        0.46818597436968
H           -3.99488661951949       -1.59177863294764        0.87015179515622
H           -0.87873558814383       -3.82709718352124       -0.57147015080873
H            0.84326710308252       -3.67426177394742       -0.62777342210766
H            1.87045437621993       -1.85653176294989        0.09080125269726
