27
 energy: -52.517256897567 gnorm: 0.000743421703 xtb: 6.6.1 (8d0f1dd)
N            4.90587335939145       -0.18759749830313        0.00159838121631
C            3.95504942945858        0.45649689914803       -0.00038123921650
C            2.80576031185617        1.24933236831311       -0.00116343031005
C            2.76376759524779        2.66055641231522       -0.00166532657096
N            1.53167561920238        3.11778725022406       -0.00278486659575
C            0.67903063855000        2.05341972768065       -0.00298163768235
C           -0.65289249849373        2.39727710843886       -0.00472711393771
C           -1.90229813773116        1.75075730568153       -0.00545565580700
N           -2.96330264950789        2.59813837838200       -0.00849382851796
C           -2.21506853812739        0.36851439486912       -0.00326191825592
C           -3.61378199395465        0.08208031467376       -0.00342245136333
N           -4.75263411383845       -0.05658284754493       -0.00224060851309
C           -1.48607643441130       -0.82318844563316       -0.00122111686554
N           -2.25897406409011       -1.93196724644302        0.00027522211254
C           -1.47172265881450       -2.99488782070235        0.00160810989867
C           -0.11560059683100       -2.63738566774173        0.00104980194626
C            0.97549950361604       -3.50887164947645        0.00255178087525
N            1.87268261111101       -4.22545166363010        0.00194680602821
C           -0.06751832543135       -1.21515690148479       -0.00076569239463
C            1.13557630022929       -0.53842455947265       -0.00117651340103
C            1.46129090616214        0.80816982079381       -0.00175553288529
H            3.60668609627714        3.32765471095833       -0.00131298290629
H           -0.74346186436314        3.48076265786870       -0.00584387121823
H           -2.81763825507681        3.59177430774671       -0.00914165013469
H           -3.90522758715095        2.24450832480712       -0.00844836646577
H           -1.88331346417982       -3.98730587678419        0.00308934466521
H            2.00407147370029       -1.19487667478453       -0.00052327740032
