23
 energy: -44.036958413662 gnorm: 0.000591445931 xtb: 6.6.1 (8d0f1dd)
N            4.38402108529721       -0.68328806106657        1.51681582978420
C            3.52053623741359       -0.11141322328666        1.01964687223907
C            2.47467115712565        0.59163749418853        0.42214897100112
C            2.48550637862694        1.91537777268844       -0.03353261309114
N            1.33483272499865        2.29031613480204       -0.58665966358336
C            0.48422095290654        1.25367860486893       -0.52175817392149
C           -0.86438733915483        1.47637826839759       -0.73131334030188
C           -1.97222609557446        0.73095871771158       -0.34781574607928
N           -3.15560679512895        1.33074308796610       -0.26140740990540
C           -3.97787655305632        0.52019758508083        0.43772533125751
C           -3.37504585268933       -0.64881191664695        0.84953937166057
C           -2.07885229929342       -0.63873865755836        0.28238958785264
N           -1.33777355628062       -1.69322491288121        0.17328469034533
C           -0.12597218362323       -1.90055212937933       -0.31395149962777
N            0.07471734163642       -3.06255417178051       -0.96761347506925
N            0.95032478534363       -1.20212589852433       -0.00957007915598
C            1.20961961120944        0.06503427115272        0.03753670533326
H            3.30782835107902        2.60579665361316        0.03052600986825
H           -1.10205630435425        2.48243934237510       -1.05681264780724
H           -4.99064264316097        0.83267399243218        0.62136740134831
H           -3.81302263454302       -1.45972280845470        1.39460989978887
H           -0.67180538255874       -3.73468715602759       -1.00152143163972
H            1.01975341928479       -3.36635471536974       -1.12772029419511
