26
 energy: -47.194541417019 gnorm: 0.000669780476 xtb: 6.6.1 (8d0f1dd)
N            3.29749065831483        2.94958750288822        0.19697203181815
C            2.40530916363428        2.23477480346629        0.10176866611808
C            1.26201244084662        1.40859457600319       -0.03521394241556
C            0.08750213416982        2.12191566797190       -0.38478340513954
N           -1.16772017309935        1.85338312453990       -0.26300702763376
C           -1.92031258869761        0.79675807640692       -0.08501114072578
C           -3.26026647013357        0.91312178045553        0.24748338467813
C           -3.88380612133762       -0.35201106188893        0.15306387352553
N           -5.18939024666270       -0.58738625093230        0.38200380703928
C           -2.92757017834287       -1.30615687572139       -0.21105074385019
C           -1.67206353660175       -0.69345782832668       -0.30142652448782
N           -0.59567568307909       -1.41464859234637       -0.38631976395095
C            0.68946303444416       -1.16915382601538       -0.23769600361366
C            1.61389626730027       -2.20863648106986       -0.24191893027579
C            2.85481770437879       -1.65373289940654        0.13464475250340
N            4.01720966727047       -2.30075117832844        0.30629121495832
N            2.77343179597897       -0.33178119373899        0.35495681202561
C            1.51495166377474        0.04705088012761        0.08886641493429
H            0.26879701521696        3.14400750404952       -0.71691769779082
H           -3.75080006303027        1.83198665467054        0.50871988903446
H           -5.57015000961411       -1.50667962007936        0.25035478832455
H           -5.80237498088645        0.16382737042978        0.64119546736704
H           -3.10378736726425       -2.35334229401672       -0.36450779905342
H            1.40586126837391       -3.23866324728144       -0.44905387892889
H            4.11743046464850       -3.26007343954146        0.03057809611433
H            4.83038799919850       -1.75706276661450        0.53774690002487
