25
 energy: -49.057478542528 gnorm: 0.000738900760 xtb: 6.6.1 (8d0f1dd)
N            4.93462105931129       -1.01838835138097        0.35522953866484
C            3.80340417376387       -0.86110462811335        0.26999096242467
C            2.38837542903064       -0.73660492624231        0.22362098670176
C            1.69865239664499       -1.92484550340261        0.55006728000604
N            0.51771899512497       -2.31177730541442        0.20678791722507
C           -0.64413284396695       -1.83496784600845       -0.11083453286711
C           -1.67118863324324       -2.69314088311892       -0.57364437868594
C           -2.88340398570827       -2.05159947179397       -0.45808346122607
C           -2.68076121290669       -0.74836922529330        0.04873949129029
C           -3.75317745150684        0.09795869213368        0.35287168313631
N           -4.69866763720662        0.70286094081307        0.59644133706692
C           -1.28600779771018       -0.51757062171714        0.17074049245630
C           -0.70977955026957        0.74354199114760        0.23463082338321
C           -1.61340586863302        1.82993427168881        0.43599995551870
N           -2.27995862252524        2.73712578698552        0.64664966933640
C            0.60520735783438        1.19051816261662       -0.01967755509250
C            0.89526562054922        2.53603847477444       -0.27599493219984
C            2.26061121629928        2.61013045008819       -0.57992756701932
N            2.85520938346655        1.43182551336468       -0.49250651505537
C            1.92205419220921        0.52133741932441       -0.14338732881870
H            2.29670659481390       -2.70827851507611        1.01012469201524
H           -1.50509462854569       -3.70028512074384       -0.90358439363361
H           -3.84879071758096       -2.46308052260657       -0.68964981856803
H            0.20099520990713        3.35296969184169       -0.27825934283197
H            2.82047903244539        3.48474682683531       -0.85525962622673
