26
 energy: -48.003512234783 gnorm: 0.000388510356 xtb: 6.6.1 (8d0f1dd)
N           -3.99412462574314        2.90654113246943        0.00445463757473
C           -3.65628443633874        1.80773651948308        0.00285303326409
C           -3.22431191011275        0.48201671735907        0.00236577896167
C           -4.02468916092460       -0.67426585830521        0.00226619865485
N           -3.30158658185261       -1.77881782428275        0.00143592235962
C           -1.99267699686050       -1.42941924543517        0.00091405978309
C           -1.08147883252962       -2.47305561600904       -0.00064313396640
C            0.31105082166614       -2.56362647716604       -0.00193472682432
N            1.30902763799478       -1.71936129190983       -0.00092252431714
C            1.45862579806725       -0.42234040338836        0.00067980865217
C            2.77819541212371        0.08848655166738        0.00184555819211
C            3.96007716303349       -0.65569100380022        0.00215187182033
N            4.97372316296108       -1.19725545144188        0.00141422483436
C            2.74245906115701        1.50638890163008        0.00266504592911
N            3.81707153198036        2.30963529336165        0.00386964176264
C            1.39575236753320        1.89705979448587        0.00222863790652
C            0.56198299092687        0.77581856445233        0.00125915242060
C           -0.81628002627854        0.92701534580900        0.00162270076758
C           -1.87630588356928        0.03634610871518        0.00160406299323
H           -5.09920604031876       -0.71367306044098        0.00265109341492
H           -1.58692123734538       -3.43246195741865       -0.00119831591482
H            0.68157680521166       -3.58823552524741       -0.00391430638349
H            4.74066996213247        1.91241341265684        0.00375324367400
H            3.71056986306227        3.30811435152587        0.00394350269712
H            1.05265456143529        2.91625342298679        0.00267687901747
H           -1.13429557031179        1.96776278544301        0.00244014562591
