25
 energy: -53.848346644619 gnorm: 0.000684373015 xtb: 6.6.1 (8d0f1dd)
N            3.05157019989259        4.01113707463139       -0.51417828854860
C            2.34027756889998        3.11706367820643       -0.44809640104180
C            1.41579656917847        2.03869182458041       -0.40062827866685
C            0.07662269848850        2.39421582913582       -0.67696025515674
N           -1.02090728859011        1.83203497662154       -0.29092829845799
C           -1.55559675224702        0.72040808379549        0.02634361466494
C           -2.86388222644771        0.48366727266738        0.50807877250485
C           -3.63898810231658        1.40773240034369        1.21771942488277
N           -4.27226045505427        2.17262928353502        1.79279137996784
C           -3.25512688902176       -0.81215543321175        0.12267744836975
C           -2.20192671090273       -1.48433509800970       -0.49191433000904
C           -2.24842624180341       -2.75123448774054       -1.08438798468849
N           -2.29386225965803       -3.78707211229986       -1.57502707015336
C           -1.03524801730546       -0.66625202682161       -0.39002804199090
N            0.16517176692155       -1.05979504085210       -0.29262022406088
C            1.35415263035932       -0.56497576452377       -0.04596016043970
C            2.40571193569939       -1.37851412781366        0.42401599043424
C            2.34635517316642       -2.74342787757912        0.72180070822152
N            2.31040040022844       -3.85893226212427        0.98669310124819
C            3.54623723947173       -0.54269662489682        0.50220960751066
N            3.27657070108588        0.70152072977940        0.17331757622011
C            1.96510718704868        0.79130354328978       -0.12853049123637
H           -0.07475181152911        3.34403705050321       -1.18336084398772
H           -4.23734817809492       -1.22125807150711        0.28011305341017
H            4.54248047443332       -0.84250502581330        0.77093439210329
