28
 energy: -56.248309104965 gnorm: 0.000968351618 xtb: 6.6.1 (8d0f1dd)
N            4.60578682412728       -1.91115471719474       -0.16587350731726
C            3.84763018827004       -1.05773884448492       -0.03795413259607
C            3.05024859518462        0.07119387770756        0.17004780939068
C            3.58387346112521        1.27947812160774        0.72424848629850
N            2.68645201976564        2.20683597692564        0.86486373727648
C            1.49460857560495        1.70953456475629        0.37766779226019
C            0.51350562855995        2.62730310756659        0.19442190882569
C           -0.78646950652763        2.52081940968965       -0.41623747140913
N           -1.21843228504970        3.61643700549183       -1.07698987853594
N           -1.64623753294169        1.56352133993461       -0.29372118036939
C           -1.64748653821376        0.28250772979486       -0.02707445378119
C           -2.80675955959413       -0.43296522303535        0.29306097866887
C           -4.06310725623499        0.05709239862893        0.63501102453495
N           -5.11645748158562        0.41606423252794        0.92456933626221
C           -2.47406097417275       -1.81776911380373        0.12400732404952
N           -3.29648035904183       -2.85112804909115        0.29458182405247
N           -1.20477379497395       -1.98219018830811       -0.25218382956880
C           -0.62027235440042       -0.77235646175698       -0.27378957716340
C            0.76600550268033       -0.71722390372673       -0.38129332528849
C            1.31863738830960       -1.98071791553374       -0.73391346301671
N            1.72701013032989       -2.99197666106274       -1.08499813879104
C            1.68315025915020        0.29294341859885       -0.02396807319821
H            4.60914026258798        1.43701728830115        1.00781452877095
H            0.79098220342716        3.62676503686894        0.50935739158443
H           -2.15371674450007        3.61994546214020       -1.44670704551158
H           -0.66217960311999        4.45097280643304       -1.12058106437318
H           -4.24059610799043       -2.71086523206192        0.60999301613848
H           -2.94923716659220       -3.77762967135854        0.11410395841469
