29
 energy: -55.172247568598 gnorm: 0.000612750329 xtb: 6.6.1 (8d0f1dd)
N           -4.08465684115083       -2.59077732630560       -0.72968047231940
C           -3.49569805369441       -1.62834293485802       -0.49977267617651
C           -2.86036479840368       -0.42592043072030       -0.20769729995919
C           -3.52566282608489        0.72477286345787        0.28485845854501
N           -4.84360833242987        0.79862661511230        0.52095166794021
C           -2.58731477480427        1.75628814152546        0.47135335979344
C           -1.33293207819955        1.31751846020727        0.07838491808416
N           -0.32278085195827        2.13205483865065       -0.08763120296549
C            0.95856820960447        2.08037933852682       -0.26441049070257
N            1.50409223501266        3.17241658781856       -0.85901200682104
C            1.89916098519809        1.07903055326864        0.19203603031251
C            3.16951371166417        1.58528969517911        0.54282621898668
N            4.17492906278316        2.06908034345667        0.81782753196536
C            1.77851105420840       -0.29538310788201        0.21182844823397
N            2.87451209368818       -1.01973369480124        0.51678222437069
C            2.61968714252178       -2.28645599582232        0.17935596714133
N            3.54667354666335       -3.24001485756467        0.32766623050064
C            1.29929098268600       -2.45974208742286       -0.31547905725676
C            0.68453879767992       -1.22206650020419       -0.25411142784243
N           -0.61707873212470       -1.10538822196869       -0.44967780371090
C           -1.47131117242349       -0.15331326173466       -0.27142082089740
H           -5.25271543449012        1.63999592790025        0.88537749283081
H           -5.43094134603925        0.00743813919001        0.32054775324152
H           -2.81515874746422        2.74775538542558        0.81436906784742
H            0.89953638967196        3.95270364530307       -1.05188810452885
H            2.49879596689765        3.31907302819689       -0.82670204045513
H            3.36969362982088       -4.18243680973040        0.03258661935794
H            4.44244198664453       -2.98392861100462        0.70391794193464
H            0.84043606922175       -3.38056441769916       -0.61275966675013
