28
 energy: -51.452558976947 gnorm: 0.000718334381 xtb: 6.6.1 (8d0f1dd)
N            2.51650509812272        3.89295179595877       -0.28191563212869
C            1.75682062874530        3.03538748930728       -0.20992002495933
C            0.80165314632584        1.99102216017954       -0.14889200960449
C           -0.50372955796181        2.43898277085046       -0.36863916192408
N           -1.66780898904782        1.93568161992514       -0.07611357342773
C           -2.21728645302442        0.77996933266683        0.07358948980191
N           -3.50228587984189        0.72116518514890        0.47856136355020
C           -3.92686837329244       -0.52004934284029        0.25431625547763
N           -5.18265969683362       -0.89068119773966        0.53670758345799
C           -2.89914880215612       -1.36173097676549       -0.26959923766411
C           -1.75579227373905       -0.59147985618582       -0.32852439759992
C           -0.46985621402831       -1.12534597958449       -0.46584128562559
C            0.78976230804520       -0.63531836717044       -0.21474154241906
C            1.89105632506430       -1.53777950466758       -0.12566993684176
C            1.84527055361386       -2.91211601285425       -0.33814750878750
N            1.84145021653883       -4.05025752438238       -0.51412602607756
C            3.04421572986037       -0.82691023331179        0.26258102445870
N            4.25655729562695       -1.35615804916009        0.49836849560925
C            2.69312766046150        0.53396688238092        0.37235192081867
C            1.35097551105748        0.70576495813411        0.06774130311609
H           -0.58028444603752        3.46789282450810       -0.71819526238711
H           -5.52966693044679       -1.79076296339504        0.25960194950811
H           -5.82004065483147       -0.18949448659536        0.87224944181693
H           -3.00208542930978       -2.40021799353810       -0.51927422779168
H           -0.48112643602497       -2.19810025822963       -0.64776606720542
H            4.42115332195011       -2.33351953980755        0.33145435452851
H            5.03336293193247       -0.75944482754705        0.71922312824044
H            3.37724847483078        1.32093207531984        0.63064897305978
