28
 energy: -57.813610127074 gnorm: 0.000736249732 xtb: 6.6.1 (8d0f1dd)
N           -4.33796436968505        1.72887000104863       -1.12875272410611
C           -3.28665778873966        1.49925943750127       -0.73524624852209
C           -1.92972093698261        1.28257178207219       -0.37818535643868
C           -1.15284652986391        2.44575947267258       -0.51766772852814
N           -0.02648437218965        2.75410591114296        0.04396268715744
C            1.06715168115645        2.17019219305640        0.40449796771388
C            2.10594563750661        2.89881813643323        1.05798175656424
C            3.27773353491915        2.20257482799311        0.93699603062987
C            3.03537668205473        0.98655803853854        0.23519831090778
C            4.07228395183339        0.08745165444608       -0.04539244086637
N            4.98947182254696       -0.57923459960519       -0.22321137135566
C            1.65422241648686        0.87687747385272       -0.02199258761497
C            1.00802221776999       -0.32777592550401       -0.32850007569405
C            1.85163670080962       -1.33846637154180       -0.87298193340808
N            2.48388677090833       -2.06855604931023       -1.48876809448851
C           -0.31160491961901       -0.73338540193647       -0.08097986509008
C           -0.61996530148164       -2.10676352554324        0.15068171654886
C            0.26047813768952       -3.19834545083034        0.21716750094461
N            0.90495861750771       -4.13855545307857        0.34500011558042
C           -1.96600332036672       -2.22790636758538        0.50096842966511
C           -2.55848842671823       -0.96387158683014        0.42333084615918
C           -3.89673307825872       -0.71397357580511        0.76408478316814
N           -4.97878545919804       -0.56380939666244        1.11379768474376
C           -1.57867335630711       -0.00569298848313        0.05540145198489
H           -1.64448162848475        3.29135340607406       -0.99167920912070
H            1.96603791499700        3.86246968999750        1.50793928711871
H            4.24605841615260        2.50239579913708        1.29306359852533
H           -2.45823742934626       -3.13770826175074        0.78964766971999
