27
 energy: -46.923522094295 gnorm: 0.000811710854 xtb: 6.6.1 (8d0f1dd)
N            2.90636705614733        2.74450106743623       -0.11314492094538
C            2.00601784708616        2.03372885941067       -0.05801093543598
C            0.83439622894049        1.22416769847693       -0.00725738601754
C           -0.38255883753869        1.95838213550536        0.03930640091353
N           -0.23149102169087        3.31927822952943        0.12647501180548
C           -1.71128950530598        1.53399983162678        0.03348933103285
C           -2.40955358443549        0.33576875779650        0.00003292459415
C           -3.81302467550358        0.32072239127824       -0.01737458678163
C           -4.20677086559052       -1.01441155586352       -0.03755382137881
N           -3.17612802011572       -1.84934141590719       -0.02903737029365
C           -2.04629512625058       -1.09919139126430       -0.00817862183617
C           -0.86042624140791       -1.78779690313440        0.00997538018419
C            0.48461446194455       -1.41788783407980        0.01473706299360
C            1.50104898851303       -2.36655842835229        0.02039458427350
C            2.72627298451185       -1.66064524949779       -0.00473299380230
N            3.96602081866176       -2.17795681364069       -0.04028839774076
N            2.52605605044664       -0.34039544080096       -0.02547808859917
C            1.19429876508981       -0.12162119789746       -0.00871487928595
H           -1.03322314827308        3.91258959569562        0.01166636661746
H            0.67832815221116        3.73176995835004        0.01310528842918
H           -2.39651219540788        2.37983722533632        0.05915055722901
H           -4.45753521550692        1.17923079329420       -0.01608480051805
H           -5.21293911979195       -1.39577487006497       -0.05708244508258
H           -1.01787271100493       -2.86195986773954        0.01241676801253
H            1.38233943246239       -3.43242036133902        0.03593796834032
H            4.11498484903597       -3.15728370342523        0.12082380372143
H            4.74022715767291       -1.54109363712920        0.02972437757072
