27
 energy: -46.926684411221 gnorm: 0.000404210860 xtb: 6.6.1 (8d0f1dd)
N            4.91622785094384        0.60585331690347        1.10935674260840
C            3.98286792751228        0.03399203301508        0.75553375963391
C            2.85807131940946       -0.66799594902728        0.33132175745664
C            2.76505380132341       -2.05593664663558        0.07993172487586
N            1.57581372219413       -2.42417416130234       -0.34255089451636
C            0.77697227011140       -1.31736507548207       -0.33874407166854
C           -0.57250740546581       -1.50409187160042       -0.49200517110507
C           -1.69027785708164       -0.69411218300834       -0.25601356952884
C           -2.96043471270155       -1.23780212257656       -0.24250392946761
C           -3.90693728219287       -0.25942566151804        0.17546162533094
N           -5.24447313730304       -0.46761253269039        0.25822405932151
C           -3.22445418363959        0.91825927595912        0.41298834576312
C           -1.84648070440880        0.73667675950638        0.12263130471658
C           -1.00058401310449        1.80791519108040        0.08540327801846
C            0.38082445644215        1.95959357637247       -0.25767132170595
N            0.73423858118870        3.19713162155345       -0.71200075954523
N            1.38722048231989        1.15543073204282       -0.10338423400993
C            1.59060814120216       -0.13341620761379        0.01355249340203
H            3.55772755808909       -2.77455861791074        0.19491979355618
H           -0.82204038739574       -2.53856339110690       -0.70703546743279
H           -3.20215362322043       -2.25783935549106       -0.48029004052771
H           -5.81007968931743        0.21240863900085        0.73559385524956
H           -5.58794937546654       -1.41179001722806        0.23217454502920
H           -3.66171207254688        1.84812146202309        0.72579615858849
H           -1.47795792191846        2.75490042514464        0.32074158894401
H            1.71847656876278        3.38656818737598       -0.79929016055404
H            0.10108408836552        3.97265826281529       -0.63643600253286
