27
 energy: -52.509495181890 gnorm: 0.000899006135 xtb: 6.6.1 (8d0f1dd)
N            3.74957166821627       -2.36506415404252        0.80137213315945
C            2.76188901397558       -1.84794453208517        0.53507891288574
C            1.48829391656707       -1.26745899403291        0.29925608911273
C            0.44430958635767       -2.17836011444884        0.50226725661595
N           -0.80404437968932       -2.17708947387463        0.13482462784198
C           -1.75722180699613       -1.33248931201149       -0.08619336920254
C           -3.02410849283276       -1.77042071683467       -0.52013220800935
C           -3.94597255271886       -0.74352555927267       -0.34233663970128
N           -5.26338355662609       -0.78466707839339       -0.59193586450630
C           -3.25599042952223        0.40181404133849        0.15855080104640
C           -1.90743108725646        0.12311920947252        0.25247359683214
C           -0.92596340247340        1.12208052034574        0.37475765244242
C           -1.44647721695974        2.43257468130190        0.59053596286807
N           -1.92070040434331        3.45260983183948        0.80677804092660
C            0.44384265025585        1.12833989992222        0.12983277648029
N            1.00047674925504        2.35601008144252       -0.02961382737885
C            2.26138259287824        2.19315371969357       -0.36245386215245
C            2.63504824871584        0.82862157325689       -0.38340629255574
C            3.90326916819830        0.36542302635947       -0.74495026086510
N            4.95165269455220        0.05536605102531       -1.09627045080131
C            1.47953487358448        0.09433576784261       -0.05105402724160
H            0.75332952886894       -3.14206994458401        0.90465052910115
H           -3.23134575010189       -2.76461845757379       -0.86387214214169
H           -5.84703555881100        0.00334285092377       -0.37467059567487
H           -5.68659719197189       -1.61693034946522       -0.96173422420194
H           -3.72142122797259        1.34441239070943        0.38165248207591
H            2.89238250015186        3.03380146524267       -0.58511126045803
