28
 energy: -52.238643784631 gnorm: 0.000727652077 xtb: 6.6.1 (8d0f1dd)
N            4.89198291593130       -2.17918741472735        0.47091993451444
C            4.25270361005325       -1.24721633295042        0.26178522374382
C            3.47015573090910       -0.12073149179274        0.00963122952696
C            3.93098869710382        1.16604538547128       -0.36676367927639
N            2.94438067663263        2.01020791466824       -0.53830758767643
C            1.77201931852965        1.35128419886472       -0.27780682275953
C            0.64886292737768        2.14116267749039       -0.28367194728464
C           -0.71510154304623        1.99339645746235        0.03458368580644
N           -1.36559250002536        3.18031566459007        0.18497868099998
C           -1.50882134014174        0.82378334730916        0.14068562025900
C           -2.85389000801995        1.11287989966170        0.50534052355257
N           -3.88234053654537        1.41241818910888        0.91863464507668
C           -1.27652795643950       -0.55332471550196       -0.02912127471462
C           -2.35541671906134       -1.44726422632352       -0.22064119992057
C           -3.67113603153060       -1.14672281604340       -0.59546238133304
N           -4.74297445454614       -0.99147659573010       -0.97829982661946
C           -1.88817525952025       -2.77840898535042       -0.13311008529381
C           -0.54239448054256       -2.74921188208762        0.13340456142220
C           -0.08241613486774       -1.40601336655149        0.14443966107597
C            1.26567946840542       -1.16520379400820        0.26033167077016
C            2.06137709366965       -0.04156435599441        0.05091383033548
H            4.95457781389960        1.46370603717250       -0.50533546317155
H            0.91804580708018        3.16674222627896       -0.52196040415235
H           -2.35145910826193        3.21580310049167        0.37903073807760
H           -0.85567298765573        4.04257838179779        0.12693170131224
H           -2.50396176859212       -3.64895412102211       -0.26341753996691
H            0.09685911823241       -3.60317788690587        0.25806795190609
H            1.84863940457173       -2.06215807197802        0.45588996168918
