31
 energy: -60.209879120475 gnorm: 0.000711460160 xtb: 6.6.1 (8d0f1dd)
N           -4.87897447871688       -1.94949040813703       -0.53185633838908
C           -4.28082748516996       -1.00290835153502       -0.27484150862134
C           -3.56635236944512        0.15622315595052        0.02871528916047
C           -4.11492513308932        1.39008827778237        0.45938599498739
N           -3.19318571992637        2.29631299425599        0.67314454401729
C           -1.97790032550851        1.73853653174505        0.37773824798855
C           -0.91966578422442        2.60623603922690        0.39442061343074
C            0.44108092154767        2.56860408749217        0.01496925257395
N            0.98635902858992        3.80380701296169       -0.14303096110697
C            1.31416462132387        1.47062260496195       -0.14737036173698
C            2.61544285231045        1.85926303758453       -0.56628082365025
N            3.60804795204274        2.22620656809051       -1.01274844320016
C            1.19981566127226        0.07388981109888        0.03095073450134
C            2.35655514773172       -0.71211163914904        0.19687358744936
C            3.66019283435358       -0.31654089568661        0.51489061529062
N            4.74369947497686       -0.12444467961289        0.84705150740094
C            2.01872921704594       -2.09387930180355        0.13328067206168
N            2.87159748511390       -3.11438774923911        0.27340952311580
C            0.63340940415556       -2.17238522289009       -0.09789267283995
C           -0.06204113277682       -3.37497479721645       -0.23340433866143
N           -0.58786740575816       -4.39132405064843       -0.34295773608677
C            0.07527593720871       -0.86278993829693       -0.10608874207037
C           -1.29346541533465       -0.72304975012341       -0.22197764638789
C           -2.16695347709373        0.33320048002140       -0.00309276931001
H           -5.15751924423122        1.60707993758779        0.60749526913338
H           -1.25184602576299        3.60042066283700        0.68009494136055
H            1.95431015570545        3.91832439690191       -0.39098077148640
H            0.41143678664921        4.62155255896020       -0.05372799987380
H            2.54061155737881       -4.06274310077918        0.22370933598129
H            3.84466181691323       -2.93660277998157        0.45736987757862
H           -1.80477873428203       -1.66381053556094       -0.41728968811005
