27
 energy: -52.510063033301 gnorm: 0.000836292595 xtb: 6.6.1 (8d0f1dd)
N           -4.66200662648379        2.23563980235191       -0.00114747014308
C           -3.59303691825330        1.82131347395313       -0.00099576201810
C           -2.24866695171393        1.35593850748012        0.00041295358157
C           -1.34157258310034        2.44970030387174        0.00151868822960
N           -0.05379176154497        2.59712310015725        0.00239268079930
C            0.98352351897673        1.78300805351660        0.00296906492791
C            2.26082194304643        2.34550578418326        0.00373520451843
C            3.23715504012475        1.33713749721138        0.00449536051374
N            4.56682585482344        1.50073021268830        0.00539359290145
C            2.57065625419640        0.08224363983906        0.00420739439927
C            3.24255514151206       -1.14184932769659        0.00521461821551
N            3.87991021114084       -2.09807025916827        0.00444930768782
C            1.17079334881769        0.29155225003778        0.00310980103626
N            0.37956620553391       -0.74332566542065        0.00243311147061
C           -0.90978034940195       -0.92093685823283        0.00127773121089
C           -1.41478540617244       -2.24722657484785        0.00064077896778
C           -0.63684140759224       -3.40984439825398        0.00105227251243
N           -0.03053720794329       -4.38470044350487        0.00219135550441
C           -2.82003816895706       -2.20641005388567       -0.00072404113383
C           -3.23085690895292       -0.88759445332361       -0.00104067882937
C           -2.11015194001349       -0.02843466723006        0.00018444351951
H           -1.84879070428478        3.41532377401205        0.00152048539029
H            2.45111999067420        3.40215709809913        0.00381270395958
H            4.96922771660494        2.42101819549872        0.00574286466878
H            5.17051259479929        0.69593707345108        0.00603849331131
H           -3.45983046819998       -3.06992295312678       -0.00147081609642
H           -4.25272681033621       -0.55456980576034       -0.00206569870566
