23
 energy: -44.039268273249 gnorm: 0.000723503836 xtb: 6.6.1 (8d0f1dd)
N            4.07518989059487       -1.89849312084674        0.81500734724071
C            3.37891823378037       -1.04375774303765        0.49239737452348
C            2.54534563694674        0.00558707028321        0.10294864919468
C            2.97387452612023        1.25664566193396       -0.42960017131828
N            1.97759639290596        2.04178364279981       -0.72603456354564
C            0.81430124944444        1.39429433710033       -0.37304825428423
C           -0.31334640139094        2.15122097585833       -0.37112320504071
C           -1.64385335632683        1.84737281906949        0.08819597411674
N           -2.32380333629234        2.86413615285359        0.65844230090084
N           -2.31182905436176        0.75895051774179       -0.11231413096733
C           -2.09744768878431       -0.51299015472857       -0.26748383339651
N           -3.06198070073174       -1.33874194194388       -0.67982824931543
C           -2.60094408414734       -2.56262737811067       -0.40071255817959
N           -1.40011136313264       -2.64149721296395        0.15270435702086
C           -0.95160876559742       -1.36896518342192        0.19523041104926
C            0.38020288313811       -1.10194248155718        0.40058389927581
C            1.14251127006024        0.03370557722326        0.11812500701047
H            3.99330515577136        1.56039252713378       -0.58859341757357
H           -0.15835790237482        3.16988700298701       -0.70835603755045
H           -3.28514270364797        2.71619063218774        0.91482491035599
H           -1.92141433980964        3.78038072178913        0.73797666802223
H           -3.18579915831771       -3.43994684081857       -0.60916101086598
H            0.96191821335452       -1.98064085163229        0.66446222122612
