26
 energy: -52.785392191823 gnorm: 0.000972442404 xtb: 6.6.1 (8d0f1dd)
N           -3.71543301591627       -3.24112506538925        0.28723442297828
C           -2.79418052119016       -2.57456377335563        0.14912922005302
C           -1.60611101881169       -1.82390106109923       -0.06161879686187
C           -0.53112470045369       -2.61267470146722       -0.58278594066866
N            0.73228697948569       -2.49819473707622       -0.43769863554002
C            1.59218589966095       -1.57706429333749       -0.06344985886804
C            2.89207075709499       -1.85344077881385        0.32788911631661
C            3.59928553850922       -0.62725636107466        0.26168463721703
N            4.88727665632983       -0.41494265874686        0.53039176420404
N            2.81171974234707        0.38359291525651       -0.14886494794718
C            1.56857993814020       -0.09025884048156       -0.25652887142942
C            0.52318657719727        0.82590732592442       -0.36429424939684
C            1.00574690529805        2.14390213367004       -0.60701775164847
N            1.42327874839408        3.17578283844243       -0.87629873164120
C           -0.84995184495361        0.70015718312359       -0.08361250630725
C           -1.70493129041859        1.79286822235325        0.12598751121104
C           -1.49011183069434        3.17008048012582        0.01749576074664
N           -1.43413527267048        4.31571550523501       -0.03246072875107
C           -2.95098860993645        1.25594111310385        0.56535648830955
N           -2.94074464525062       -0.04798027117651        0.61822414342090
C           -1.71364237834014       -0.47468803305128        0.19912471183976
H           -0.83755702806289       -3.52943388838982       -1.08355133506686
H            3.29288581163075       -2.81340697026892        0.58163783320852
H            5.47769598177254       -1.15193800745796        0.87119425778945
H            5.25814601683380        0.50994246419312        0.39312884278194
H           -3.82315555969664        1.82263990645900        0.83594347645083
