27
 energy: -51.722717663803 gnorm: 0.000471417283 xtb: 6.6.1 (8d0f1dd)
N           -2.45536122097615        3.34598187953423       -0.01041620189365
C           -2.36020112246360        2.20028656162583       -0.00799764861110
C           -2.36548885733667        0.80486826477537       -0.00722389605857
C           -3.54676008358642        0.02887114083783       -0.00891548237398
N           -4.79454662705923        0.51751640243410       -0.01185148977530
C           -3.17573464681729       -1.33098148691514       -0.00686924451708
C           -1.79364061318421       -1.45837214393445       -0.00422508283496
C           -1.18516632130834       -2.71376599343193       -0.00233014130112
C            0.12724305636931       -3.16850845635105       -0.00017408422056
N            1.32382799063132       -2.62769957033153        0.00311206052332
C            1.78587312847681       -1.41115463400891        0.00391330125523
N            3.12528504820261       -1.29105259056470        0.00832305397771
C            3.43506452185221        0.00214537325808        0.00695679066843
N            4.69810348705728        0.43194928836898        0.00986469001528
C            2.26931224534829        0.83683328037856        0.00201554758767
C            2.31036064303487        2.22813553230632        0.00007245167522
N            2.43404031515617        3.37157002396961       -0.00107078803811
C            1.16605226717975       -0.02746346499866        0.00016715373241
N           -0.05451829387987        0.45904222197829       -0.00279319465330
C           -1.24152241433490       -0.05901897304863       -0.00455903050260
H           -5.58838702584942       -0.09764363931791       -0.01290813997868
H           -4.94050744592143        1.51272141840035       -0.01302629597703
H           -3.87172833482394       -2.15088124890130       -0.00727761849426
H           -1.90988429254741       -3.52231593046104       -0.00335017298294
H            0.20862347498266       -4.25576291774376       -0.00095145593094
H            4.90265339035074        1.41613903266269        0.00874973332948
H            5.44001279704652       -0.24607833361954        0.01328302058092
