27
 energy: -56.520826914567 gnorm: 0.000402044023 xtb: 6.6.1 (8d0f1dd)
N            4.69572300652220       -0.81873461403603        1.50749634785897
C            3.95393029600981       -0.17387587699699        0.91353046910692
C            3.06387301285156        0.63640550744236        0.20860203599706
C            3.38125207293890        1.65951771134249       -0.69523466418633
N            2.32718274826045        2.29867619205777       -1.21101657511143
C            1.24882133305546        1.79502046591060       -0.61363349848317
N            0.13883169312677        2.41479992127491       -0.46677815138592
C           -1.03887910653909        2.29767525743288        0.08435691613344
N           -1.51465699614064        3.41054102752362        0.67939131769231
C           -1.92739262441086        1.17098956209256       -0.00917083597618
C           -3.30252269294579        1.49065380186570       -0.06486053029745
N           -4.40438855600600        1.81015348074658       -0.09015697443775
C           -1.61751117547594       -0.17858871886683        0.00519320131627
N           -2.60346841120029       -1.07718398322325       -0.14193276765782
C           -2.05887472803756       -2.29147243936658       -0.16998956811351
N           -2.78410078159963       -3.39673358283472       -0.31811407514659
C           -0.63064870211448       -2.23885995942095       -0.01489666007827
C            0.20013205871238       -3.35670730634708       -0.02047944754161
N            0.81895163488761       -4.32475948755800       -0.04518396545836
C           -0.30148947705573       -0.88845409477389        0.14237954995370
N            0.93491702145159       -0.50941335876455        0.37216923063119
C            1.64755349435083        0.52682269576189        0.15682753722508
H            4.37438317513406        1.94650175214503       -0.99441791584426
H           -2.47439458504125        3.45863946010910        0.97807783128920
H           -0.96728454645343        4.25383270576429        0.63476288208825
H           -3.78401736286482       -3.31602505374780       -0.38961029651769
H           -2.34129652031677       -4.29912544413237       -0.34952039115681
