29
 energy: -55.957018655892 gnorm: 0.000687218506 xtb: 6.6.1 (8d0f1dd)
N           -4.96385349923133        0.11041179286418       -1.00826035209401
C           -3.99799152094408       -0.38927864525808       -0.63876974710463
C           -2.83905765368534       -1.07402525220570       -0.26159964691360
C           -2.72584762829259       -2.47633218617385       -0.22708427414890
N           -1.50695906607620       -2.87065166135753        0.09316027415916
C           -0.72272249733537       -1.77718760543257        0.19225718416437
C            0.61052735228453       -1.99429041421773        0.47117593176162
C            1.75006118752258       -1.21971491722541        0.31838011403198
N            2.91754746869700       -1.85594464427839        0.41395739917668
C            3.88549454308220       -1.00731962951428        0.00208660495778
N            5.16628070070935       -1.39242284117723       -0.01713064299727
C            3.35535017139230        0.24176711364528       -0.36001550903044
C            1.98110535292720        0.18310482501670       -0.12296457224845
C            1.16365191084367        1.32117456239420       -0.18665885972726
C            1.87704264424790        2.46529430056999       -0.63306703383536
N            2.43426702352437        3.38917621905717       -1.02732601036118
C           -0.16465882008445        1.62725187503806        0.21705382285294
N           -0.38271921644195        2.93748538757769        0.51487853177408
C           -1.30689126019739        0.79001803390267        0.27462808822147
C           -2.49077959194857        1.48018750103260        0.65426031140048
N           -3.40341642148618        2.05287109606869        1.05092196953130
C           -1.54396325012167       -0.56419575471387        0.00008022773382
H           -3.50638737984889       -3.18635231947062       -0.43192482031049
H            0.83302802088647       -3.02864782784391        0.70741394956464
H            5.39242036903208       -2.32863107234349        0.26882063558132
H            5.88179432990037       -0.78986574851115       -0.38077614399715
H            3.91873860598454        1.08678227046046       -0.70259402337738
H            0.35890496909838        3.60913417844058        0.41168169833827
H           -1.32001374872993        3.28183314195797        0.64152560769572
