29
 energy: -60.767086990805 gnorm: 0.000894192768 xtb: 6.6.1 (8d0f1dd)
N           -3.49706922705050       -3.13952064469514        0.91092269267598
C           -2.58980682797061       -2.50815824229407        0.60789596264432
C           -1.41337139508821       -1.78156018466813        0.29246394068037
C           -0.25480574272967       -2.56265386493370        0.27197183117610
N            0.89592460511081       -2.36595251355029       -0.31070634435785
C            1.79758399669642       -1.49419909391161       -0.48156577359505
N            2.98158273611208       -1.66087829591820       -1.06800323312885
C            3.82252977437758       -0.79801968103269       -0.48355436784904
N            5.11997790211526       -0.79106688850850       -0.76443303598422
C            3.17458752043000        0.10474928086296        0.43507124214233
C            3.82866401937099        1.06304417020223        1.20131144349302
N            4.42838982317561        1.82522162636856        1.81939805233922
C            1.80858604533792       -0.15324295302365        0.29799034764270
N            0.79847694651799        0.61972589700011        0.40166219664933
C           -0.47893942460097        0.64705956207458        0.14027353945506
C           -1.11138059548266        1.88476967912368       -0.12360886330322
C           -0.48982696826152        3.13171219812998       -0.22720128163376
N           -0.03155103911889        4.17907268392682       -0.33675944756841
C           -2.49844260447573        1.67304615284587       -0.26761970328575
N           -3.42324866947874        2.60092458474306       -0.52030303444261
C           -2.75096896422375        0.27532989130134       -0.11033821408601
C           -4.03865707255970       -0.24958582870813       -0.26056918001693
N           -5.13114271581357       -0.56373230579246       -0.42814223600881
C           -1.54360266435711       -0.39259975881572        0.11646402001633
H           -0.34526909660417       -3.56243605186375        0.69177082686074
H            5.47192326718034       -1.42407402292459       -1.46249329971209
H            5.74311775626033       -0.16365245119360       -0.28468021433052
H           -3.15578830462191        3.56357486219701       -0.64065924896987
H           -4.39407747624582        2.34177539705218       -0.58404841080794
