27
 energy: -51.717930767500 gnorm: 0.000976663283 xtb: 6.6.1 (8d0f1dd)
N           -2.69727332201243       -3.84742081615344        0.01915831510040
C           -1.90634317227792       -3.01611202666670        0.01520170381039
C           -0.89914002919578       -2.01582116609675        0.01231244597290
C            0.39264866413917       -2.60707110322964        0.01707129181341
N            1.61833743123418       -2.19527128923253        0.01729443968174
C            2.19568332660777       -1.00183713955870        0.01220149516542
C            3.57464986152450       -0.90170731983980        0.01478350114828
C            3.88597183641724        0.48139253379948        0.00804793317266
N            5.10384125667665        1.03127560740743        0.00769901460686
N            2.78904061405610        1.25060862211357        0.00168966624715
C            1.71991445238414        0.44418716484735        0.00358998581954
N            0.55775088395706        1.02432014715999       -0.00169690674322
C           -0.68490759496460        0.62630162253121       -0.00167994880264
C           -1.70259822708032        1.59388610514310       -0.00908338465831
C           -1.55351179461071        2.98096521395656       -0.01723481535070
N           -1.53351408733948        4.13063351799696       -0.02262560153441
C           -2.97496027525155        0.94465288817955       -0.00721113372181
N           -4.15418628953094        1.57962386749558       -0.01285948153782
C           -2.75704774853753       -0.43410532263411        0.00123197274855
C           -1.38530507126214       -0.70731985214270        0.00488715381928
H            0.34627561532033       -3.69787011777602        0.02207362447177
H            4.27243433705413       -1.71515468101880        0.02059279432177
H            5.93141506086021        0.46335068167003        0.01195870313350
H            5.17351286032819        2.03409250222799        0.00212039466779
H           -5.01379466757929        1.05975633616269       -0.01111121700795
H           -4.18209880296212        2.58502966533065       -0.01885256195463
H           -3.53413811795303       -1.17628950487221        0.00434018410965
