26
 energy: -52.788083449550 gnorm: 0.000468646321 xtb: 6.6.1 (8d0f1dd)
N            1.49430724063509        4.43284236927468        0.36607650376957
C            1.03056754875936        3.38445641735509        0.35123675420872
C            0.44250034876296        2.09456969474711        0.35050345380981
C           -0.95545145845859        2.10496084238767        0.51568355313722
N           -1.84698431376787        1.23823803441409        0.14727738831682
C           -2.05271430282343       -0.00814225318565        0.01088484672071
C           -3.22553279226912       -0.69982310619943       -0.37362426135435
C           -4.25603053567164       -0.22277078367000       -1.18339814153980
N           -5.10456114611884        0.16722308504380       -1.85224594989004
C           -3.16757509488686       -1.93045507302072        0.30930496161311
N           -2.04152665888382       -2.13647431532334        0.97904388522919
C           -1.22046244318755       -1.12196160297502        0.69365818200301
N            0.04936675369477       -1.17175248790666        0.70134618190461
C            1.07904730025196       -0.44835419285319        0.33297137547214
C            2.28850045012539       -1.07512917854211        0.00361448669330
C            2.53916693327189       -2.44740878576370       -0.06145419944197
N            2.82069049201421       -3.55817000711620       -0.14243338502837
C            3.27961734487356       -0.07591124117120       -0.25811581836662
N            4.54898771916256       -0.33486280599615       -0.59065165884530
C            2.67831825883099        1.17783236030068       -0.11462120324401
C            1.32976569542570        1.02160907960991        0.21227370285235
H           -1.38937616920386        3.03092491341290        0.88475227119569
H           -3.94990037272662       -2.66848521811737        0.33464700217289
H            4.86339628279372       -1.28663577438286       -0.67738211871572
H            5.20594061369275        0.41444067270621       -0.72071991554859
H            3.17331976440192        2.12103951387280       -0.25270567092676
