33
 energy: -53.249398302886 gnorm: 0.000681247192 xtb: 6.6.1 (8d0f1dd)
N           -5.35028295824344       -0.95038693112543       -0.46938244811070
C           -4.24104511446078       -0.70479739474415       -0.27378605096720
C           -2.90107728427759       -0.40144676164964       -0.06682374504392
C           -1.86296760522905       -1.32373468421553        0.14767770666630
N           -2.08043835311752       -2.66124091199886        0.28929279335367
C           -0.62391171021335       -0.62311253709446        0.20340811281896
C            0.54919028232095       -1.35056972416354        0.32909565019957
C            1.90359072307364       -1.10127187699499        0.19572748317028
C            2.81932980643636       -2.18258337895574        0.24583226616749
C            4.09157120764366       -1.74164047515233       -0.03958979439834
C            4.02956654065272       -0.35873938826210       -0.27328699560599
N            5.12300357891905        0.41614220087464       -0.54327672313201
C            2.68386985271200        0.08283631827752       -0.10724890127318
C            2.36260156768447        1.43353169149328       -0.14121871658809
C            1.23512538034330        2.18628583976967        0.09814501338677
C           -0.14022548182280        1.95428491257802        0.27840825585390
N           -0.83932526818698        3.10819117263268        0.57152977245698
C           -0.93931848200570        0.80510342713683        0.09560123068190
C           -2.33849536205401        0.89384642872855       -0.09283830697995
N           -3.11414510285824        2.01633053352508       -0.29445057629375
H           -1.31398681864317       -3.29847579661417        0.15663462672139
H           -2.98872835824140       -2.99917967545348        0.01559187707585
H            0.36651577749408       -2.40669448786179        0.51139573698505
H            2.54453476010950       -3.20114793494753        0.45811685717019
H            4.98471705185158       -2.33822231688345       -0.08628831266345
H            4.97868556652222        1.31000389396545       -0.98223219556686
H            5.95528996465472       -0.07266085288107       -0.82902823185716
H            3.23089126743904        2.06327718295407       -0.31877667967202
H            1.45706530012950        3.25025457216637        0.14862152587905
H           -1.72001624344274        3.00189343889990        1.04841470186989
H           -0.29134507236863        3.90518542939262        0.85359009016426
H           -4.04239359616287        1.80397897765258       -0.63553993192081
H           -2.66513947745905        2.77615956855106       -0.78586282974819
