25
 energy: -47.480434345053 gnorm: 0.000707845802 xtb: 6.6.1 (8d0f1dd)
N           -3.33534997658049       -2.97784109805130       -0.03333708563458
C           -2.43263823442979       -2.27043734599625       -0.02354005818498
C           -1.27251762776343       -1.45268731499523       -0.01170542926770
C           -0.07621383745563       -2.18921464186886       -0.00733895389333
N            1.19796269130990       -1.91422460961687        0.00325961191236
C            1.91716904330911       -0.81362258690681        0.01335880056471
C            3.29880534188894       -0.92938890468938        0.02347780526346
C            3.89267881129510        0.35140512457335        0.03315233975849
N            5.21083714919286        0.59718422918587        0.04420875152015
C            2.87481243056984        1.31913979951998        0.02963108464829
C            1.62907599635951        0.69667851835704        0.01756892416384
N            0.55388021603596        1.43405667985815        0.01300906308442
C           -0.72537589358281        1.17032474358464        0.00303706579272
N           -1.57670062604614        2.20041213472982        0.00098487815437
C           -2.80087254551802        1.65271747353567       -0.00908403575652
N           -3.91423949298937        2.38329518581044       -0.01387385415346
N           -2.83671068860226        0.30411656767043       -0.01417293723639
C           -1.56122633468664       -0.08222311904722       -0.00731502998558
H           -0.24317112579388       -3.26757591860516       -0.01411385607786
H            3.82688155107937       -1.86419787271182        0.02358398891610
H            5.87012993192063       -0.16068458312847        0.04465878070711
H            5.55142658604517        1.54219517264297        0.04936643291849
H            3.01348462434624        2.38326375708588        0.03515671676387
H           -3.84476299955459        3.38449235252392       -0.00975289747416
H           -4.80369278914971        1.91771086393904       -0.02135559400389
