26
 energy: -47.989720579006 gnorm: 0.000631455307 xtb: 6.6.1 (8d0f1dd)
N            4.47428801340604       -0.54423773152646        0.07303045173315
C            3.45849887769070       -0.00928419151864        0.03954716654445
C            2.31623285476893        0.79641784565125        0.01877902772308
C            2.40442830160762        2.21041399969118        0.04217976024028
N            1.22566363377526        2.78146566431013        0.03087013028279
C            0.27648613089703        1.79931227971277        0.01014477441393
C           -1.00974524511178        2.28504699021630       -0.01210917088978
C           -2.32005438218863        1.77575647253239       -0.01765556899954
N           -3.29257713981103        2.73806781214600       -0.02876765227167
C           -2.79182093975934        0.46185537380051        0.02931506852799
C           -2.22391538362899       -0.79994601976539        0.05623657004206
C           -3.03650461245351       -1.94805502675847        0.10234736026067
C           -2.19248754524752       -3.05202423407040        0.07920117647090
N           -0.91299031305000       -2.70011767167301        0.01729009649701
C           -0.84959113998693       -1.35318528116102        0.00914146724914
C            0.43666053496928       -0.82217440645026       -0.03214116555628
C            1.41258130663176       -1.86276108188839       -0.11714564021424
N            2.19237249581230       -2.69550391884406       -0.21307573980245
C            0.93976083219954        0.48492101815193       -0.00052547236098
H            3.30997051730303        2.78914755001623        0.06582916619075
H           -0.97990553132527        3.37170904615346       -0.01713423557126
H           -3.04604783257668        3.70344064122527       -0.14964818094899
H           -4.25914182996013        2.48338325130455       -0.12395797253264
H           -3.87830184108074        0.41288551941830        0.04788337081361
H           -4.10845188055557       -1.96077956978931        0.14497270889684
H           -2.46551664622581       -4.09122304068462        0.10442940686122
