25
 energy: -49.058220503474 gnorm: 0.000617330541 xtb: 6.6.1 (8d0f1dd)
N            4.80237649614697        1.26018402094392        0.00602643997982
C            3.66678590647455        1.10688398772888        0.00606453375425
C            2.24998502047742        0.96474840098718        0.00464067911819
C            1.61935828108770        2.23284004887726        0.00570554160813
N            0.39117644008480        2.66349537633527        0.00522174570669
C           -0.79344494003398        2.10412519544862        0.00397224067211
C           -1.92935771623754        2.94268640478136        0.00390799742202
C           -3.08544361139005        2.18137500496471        0.00273537271870
C           -2.73649247439075        0.82175887231427        0.00189102628388
C           -3.64080476334863       -0.24701794134848        0.00059644752814
N           -4.40877373742594       -1.09978114973437       -0.00044677548670
C           -1.31658708961956        0.69855291690937        0.00255302239603
N           -0.78680057104388       -0.48904975991717        0.00163922338683
C            0.43218192433719       -0.94794099708720        0.00172888562407
C            0.62280818586940       -2.35908496496396        0.00030116863653
C           -0.40229132962570       -3.31274543651254       -0.00151018529610
N           -1.21446523304419       -4.12318612263859       -0.00176315321449
C            1.99748647045193       -2.64012381155067        0.00068030596453
C            2.69398545606585       -1.44487030713466        0.00222126797156
C            1.79570364323985       -0.35429731827129        0.00293434109391
H            2.32814337853342        3.06077003696038        0.00715686568722
H           -1.87163337599002        4.01495870236395        0.00473784403017
H           -4.09367868782938        2.55437305779771        0.00249746033228
H            2.42673122119215       -3.62505988046687       -0.00017993654351
H            3.76498882321742       -1.35163634268636        0.00276335572688
