26
 energy: -51.999826992312 gnorm: 0.000418950741 xtb: 6.6.1 (8d0f1dd)
N            4.62586139257289        1.76696956129223       -1.29125000694418
C            3.95087605295196        0.98977237855294       -0.78019351379472
C            3.14110199828916        0.03663906096716       -0.16586555289337
C            3.54255032787468       -0.99760514182971        0.68244410221944
N            2.54579402886633       -1.77147198140971        1.12950570349047
C            1.43068312336738       -1.33725422859820        0.54476937485162
N            0.37993848789454       -2.05967856324731        0.39074711223809
C           -0.82324164542195       -2.02167163307079       -0.10317324706364
N           -1.24404440550090       -3.15220862606651       -0.71214770550058
C           -1.79017307199252       -0.96600500220237        0.05778330259277
C           -3.12958933483076       -1.39480220025830        0.18716874596968
N           -4.19764883703648       -1.80642176414929        0.27364012623578
C           -1.58835736571691        0.40156426028793        0.03281775586136
N           -2.64220406307328        1.21587031446438        0.20228678844747
C           -2.19654763879849        2.47508939357029        0.15546097615795
N           -3.03001112424440        3.50835588693084        0.29080366335738
C           -0.79142321325323        2.53752112601333       -0.06110385335337
C           -0.34762046615196        1.23445741688679       -0.17083566981085
N            0.93264951979586        0.97718869175562       -0.38495432194304
C            1.71414790469977       -0.00839662962163       -0.16096871597521
H            4.55283792442460       -1.20425557773002        0.99064648236057
H           -0.63791264407097       -3.95535967170530       -0.70086830813263
H           -2.21713223407875       -3.27220272930989       -0.93875482494432
H           -2.69332855275937        4.45368358879009        0.26468285724544
H           -4.01024959212920        3.32185939866197        0.41427770423165
H           -0.19033902467222        3.42072172482119       -0.13598675360121
