31
 energy: -54.616818617452 gnorm: 0.000554391234 xtb: 6.6.1 (8d0f1dd)
N            4.04016003281203       -2.63307872304081        0.73827426863639
C            3.49735091639580       -1.64989250186600        0.47689128609320
C            2.87950077327872       -0.44731738756773        0.16211771697199
C            3.55039804441287        0.68914456372634       -0.36539776988993
N            4.86656165148391        0.73196830941557       -0.66008108373555
C            2.61677395396790        1.71376705452441       -0.53773793598784
C            1.36006982746764        1.26940194568815       -0.11875428548351
N            0.37737159613979        2.11290892063066        0.08529246935063
C           -0.89555960669045        2.09665238495604        0.32675172114875
N           -1.36527246657907        3.23284896717384        0.92103339189169
C           -1.89574195402381        1.13180019507965       -0.05994622980194
C           -3.13779556142503        1.72671960641066       -0.36666025206094
N           -4.13130046924740        2.25179802470536       -0.61448831370641
C           -1.85940016007938       -0.25641978423976       -0.12972736642156
C           -3.00910465503367       -1.00197731352353       -0.43611596640907
C           -2.77447180336474       -2.34661332320373       -0.15793914928993
N           -3.64444863399184       -3.36797750604873       -0.32980925757293
C           -1.43956468856396       -2.47764315589552        0.29225975480080
C           -0.81581871530208       -1.23667865988000        0.27962827714296
C            0.56089332507953       -1.14412758482236        0.48482692895610
C            1.49323560521111       -0.15817841956853        0.25143865370762
H            5.46046720552948       -0.02555960890471       -0.37057114943232
H            5.28866106460919        1.59819043972017       -0.94151316656053
H            2.83056492059389        2.70447081774573       -0.88991246965750
H           -2.35011285566014        3.43774157732373        0.90071529700401
H           -0.72034271717255        4.00093000159066        1.00264031502332
H           -3.94058697271721       -0.58766775815640       -0.77347349174316
H           -3.42991252720751       -4.26728012061244        0.06288309522349
H           -4.60508914630964       -3.16145738496101       -0.53901786774103
H           -0.96525201921092       -3.40639876654205        0.55083336403644
H            1.00868565382070       -2.10429691246049        0.73104281029892
