24
 energy: -43.757110139760 gnorm: 0.000445277775 xtb: 6.6.1 (8d0f1dd)
N            4.95905457505213        0.96143148418134       -0.95661687346965
C            4.02914994788085        0.36976575899231       -0.63194384443026
C            2.91183564072685       -0.37020454390740       -0.24598075658871
C            2.84736587112180       -1.75011574334644       -0.03199083689688
N            1.64003196260157       -2.16240669994417        0.34548654991426
C            0.82155301971513       -1.09721546339605        0.35837316007349
C           -0.53983274450159       -1.31449981586324        0.42327247571560
C           -1.64241814402139       -0.49519895454176        0.20846611303066
N           -2.82688979702442       -1.10289473943859        0.12194116333367
C           -3.75745122233008       -0.16441194880160       -0.15767384816510
N           -5.04283681506049       -0.50880223601090       -0.31445804694426
C           -3.18949618370774        1.11728371384213       -0.23510789650708
C           -1.82286844453882        0.97226683698229        0.00827312490612
C           -0.98482267150391        2.06361386573611        0.20798702070214
C            0.38034313849422        2.18710454991966        0.45673307787213
N            1.39444022217724        1.40114434962918        0.23440800121043
C            1.61600470911017        0.13668997254891        0.07450974924777
H            3.65487793731565       -2.45313079722628       -0.13709497561562
H           -0.80651401703414       -2.36120781937089        0.52010682715500
H           -5.74218568049299        0.17677678744113       -0.53194252400218
H           -5.29557450667401       -1.47653641599673       -0.22290032367038
H           -3.71234497607688        2.03361631531084       -0.42763237039112
H           -1.50747762016470        3.01473861172267        0.18486568776265
H            0.70484318743260        3.17824769794522        0.76920903245820
