27
 energy: -57.314202817331 gnorm: 0.000828138896 xtb: 6.6.1 (8d0f1dd)
N           -3.71776753589626        3.33981430995583       -0.77693643056728
C           -2.82905967591504        2.63831627019480       -0.60264505295343
C           -1.70794461163954        1.78831153184340       -0.42914408085241
C           -0.46447498648103        2.34369553784197       -0.74499054602618
N            0.70666698858888        1.99991161313536       -0.31270862871791
C            1.42075899357849        0.98987570432848        0.01642842457370
C            2.75296807118777        1.13710980678142        0.52906151927829
C            3.28302024498098        2.32988700238549        1.03492571776814
N            3.71324076828586        3.30510759656021        1.45945052789655
C            3.42722426155233       -0.05990654524171        0.34512384254197
C            2.55238801194785       -1.02414496280162       -0.19979405814356
C            2.97859565191775       -2.31005568642688       -0.55872575238785
N            3.41748637877371       -3.32663274870040       -0.86040320473597
C            1.25904973970261       -0.46508271909474       -0.29867609530160
C            0.07505389871282       -1.18501848345370       -0.32354017270769
C            0.17578570887677       -2.60346441177826       -0.42724123336602
N            0.22416147929633       -3.74109904120511       -0.54336807226670
C           -1.25647006996340       -0.79267708938435       -0.05335507300374
N           -2.12246564138036       -1.76044928222272        0.23169955657183
C           -3.29184429763069       -1.14058023176330        0.50322326150835
N           -4.38021494046686       -1.80362947556052        0.86451447374708
N           -3.25800007256698        0.19842646554512        0.37040003441176
C           -2.01025286068575        0.49201234091716        0.01605449083212
H           -0.47080755004144        3.29236597476180       -1.27599307888580
H            4.46293548310553       -0.23615212318307        0.57375518185535
H           -5.22800974501353       -1.29512025178093        1.04652397440895
H           -4.34744771933877       -2.80682514124471        0.92105552871623
