27
 energy: -46.924086312143 gnorm: 0.000702279807 xtb: 6.6.1 (8d0f1dd)
N           -3.22026673966913       -3.13050876214065       -0.05643619594537
C           -2.34849013648309       -2.38366378034853       -0.03442949768846
C           -1.24646857351878       -1.48999322108740       -0.00954144102042
C           -0.02983497009462       -2.17960945181596       -0.02402914587958
N            1.24413923322977       -1.87946570324977        0.01321935949337
C            1.95982844413631       -0.78805261677555        0.03600949064410
C            3.35581825568721       -0.91539234099640        0.07162451274582
C            3.94296149704848        0.34928763185047        0.05707905191899
N            5.26418044621888        0.62231126962213        0.10296518658778
C            2.91050404464571        1.31663834552807        0.02263053185916
C            1.67257715876206        0.69210080922059        0.01252628138993
C            0.49812786242118        1.43330670297622        0.00759770134095
C           -0.84843871677105        1.12803816284695        0.01598108927106
N           -1.69652862804266        2.17740103626015        0.02081019000642
C           -2.94259517473927        1.68950992801721        0.02968158729273
N           -4.01482891874362        2.50406264468979        0.07243067810427
C           -2.95265713726750        0.27834156568432        0.02846789210898
C           -1.62553848863231       -0.13056874245804        0.01818558583811
H           -0.16287622313276       -3.26326147821729       -0.06358240596605
H            3.87011209234662       -1.85641791472002        0.09591292859905
H            5.92861862325394       -0.12605953065336        0.01811632055133
H            5.58647249515740        1.56359928361172       -0.03373751353434
H            3.06801608651343        2.38048240096170        0.00939376386111
H            0.65578444724774        2.50798573069523        0.00879444467233
H           -3.86394404240512        3.48995572259258       -0.04648419811296
H           -4.93296555431533        2.12799334269111       -0.07995582319273
H           -3.82343125285377       -0.34797507758517        0.03249154325453
