24
 energy: -43.758250283486 gnorm: 0.000777171005 xtb: 6.6.1 (8d0f1dd)
N            5.13211101750615       -0.98770169892750       -0.02982459920541
C            4.17203189349440       -0.35570922471435       -0.02191242330657
C            3.00171173822945        0.40286518076162       -0.01136512817002
C            2.89953025256714        1.79575369854476       -0.00433210735755
N            1.63558447322294        2.20800306299575        0.00617698276697
C            0.83942556060968        1.12470552545948        0.00664004702147
C           -0.52719329858994        1.35257650913497        0.01487997694459
C           -1.63292779880851        0.52135638706533        0.01275127780952
N           -2.83371391529022        1.11304346903668        0.01356706864204
C           -3.77535107179833        0.15034963810886       -0.00070436578208
N           -5.07590209358544        0.46700245296201       -0.00244856771169
C           -3.20511778500624       -1.13770892807760       -0.00922395430854
C           -1.82346064061301       -0.96849157041169        0.00163123174216
N           -1.04215216262835       -2.03232997992310        0.00631134328690
C            0.23861787754404       -2.24144672436011        0.01013794408161
C            1.40551377558810       -1.45480050474633       -0.00095667363157
C            1.66568427371295       -0.10170680887278       -0.00393342174746
H            3.70903089425126        2.50366775129792       -0.00629535880888
H           -0.78072617745041        2.40704409825900        0.01920679077342
H           -5.33873812217413        1.43671404302572       -0.00137982757134
H           -5.78154779850281       -0.24594177092771       -0.02327576039165
H           -3.72400736149905       -2.07464824974747       -0.01964553241873
H            0.45309279744895       -3.31078792552901        0.02042292137749
H            2.30970030237141       -2.05832569131445       -0.00610291583469
