28
 energy: -51.450910982562 gnorm: 0.000642280318 xtb: 6.6.1 (8d0f1dd)
N            4.16403143782798       -2.51943782566739       -0.01138424459285
C            3.16089726795440       -1.96418043982898       -0.00190752930989
C            1.87661783756257       -1.35424087999426        0.01128209929671
C            0.83199242136574       -2.31122146881017        0.05389693785179
N           -0.46079802957885       -2.29490177241902        0.03438525741069
C           -1.40897369513716       -1.37303543347773        0.00286406144628
C           -2.72906290774156       -1.81051866122382       -0.04119595335178
C           -3.60776276878177       -0.71296881632756       -0.03330689977997
N           -4.95083088579830       -0.75981672986424       -0.07434094196221
C           -2.82854569221373        0.46276220281642        0.01414680795729
C           -3.34924981411762        1.75346849919818        0.04031657199394
N           -3.80413862921496        2.81121358773956        0.06107530353936
C           -1.44604096550002        0.11798373601900        0.02816430142262
C           -0.49104852164710        1.10165939841377        0.03628660976977
C            0.90915246374883        1.10442605229058        0.02022327675372
C            1.64008573687454        2.28155393525436        0.01386535451173
C            3.01115026383358        1.91448185832781       -0.01701642498173
N            4.06836516263878        2.73613021704302       -0.02385997600993
N            3.16257722356049        0.58758612260237       -0.03126884679896
C            1.93484288416395        0.03569088818141       -0.00588589944981
H            1.21214273523083       -3.33354538558393        0.10120717668850
H           -3.01888101205062       -2.84334493131271       -0.07052693135057
H           -5.48484041393164        0.09010803801307       -0.02380221859017
H           -5.42872142897688       -1.64212641092329       -0.06493790179299
H           -0.90524796715876        2.10784008320611        0.04217640267475
H            1.25272835272450        3.28178928020871        0.02797697287701
H            3.95212451708431        3.73227743559546       -0.03615720636461
H            4.98750799667879        2.33228051102342       -0.06031627785879
