25
 energy: -43.491809337032 gnorm: 0.000595694078 xtb: 6.6.1 (8d0f1dd)
N           -3.08074151045567       -3.25556904884056        0.00809484956949
C           -2.89132963707582       -2.12138792084497        0.00456106203074
C           -2.64742047195262       -0.74913072602260        0.00022592711939
C           -3.59381882585908        0.27757082187080       -0.00870917644687
N           -3.02667022109347        1.47854004665777       -0.01110528233458
C           -1.68821382819775        1.31662461920722       -0.00426831536392
C           -0.94295252886331        2.49284835588045       -0.00325840880625
C            0.40291640344211        2.80917014115757        0.00159169281948
C            1.58000666559942        2.07279261974457        0.00524172362872
C            1.91191516721542        0.72566484291541        0.00654664910328
N            3.22887402704915        0.45266178222950        0.00462958733534
C            3.37621270732458       -0.88036705981171        0.00567923218524
N            4.59508178724937       -1.44564251019583        0.03221718613253
C            2.12813364286128       -1.53643735712834        0.00877101165312
C            1.15075162503581       -0.54379046974105        0.00845172525563
C           -0.20614962496091       -0.85929109263432        0.00907254056599
C           -1.36545539045146       -0.11680262112092        0.00276275426194
H           -4.66399994376320        0.17269370840420       -0.01361405739390
H           -1.60725688029516        3.35097274500400       -0.00717807503011
H            0.58213300926562        3.87908042675404        0.00191145169794
H            2.48182549477509        2.67639920656650        0.00690631858802
H            4.70028102579707       -2.43662126561007       -0.08607713417468
H            5.39805967725020       -0.84848222347113       -0.05453022409725
H            1.96665598422805       -2.59708487552939        0.01063029581806
H           -0.38590023642475       -1.93284188914112        0.01347441478268
