26
 energy: -47.996080955937 gnorm: 0.000414808665 xtb: 6.6.1 (8d0f1dd)
N            1.53168503058895        4.16633617884000       -0.00367944128420
C            0.94666038885703        3.17993618299768       -0.00232293307488
C            0.17317806414236        1.98582781102561       -0.00281719861431
C           -1.20576821405915        2.30581271144925       -0.00909137608341
N           -2.33049373092007        1.65820734079799        0.00050319455584
C           -2.67797846742123        0.39096789621451        0.00286517107306
C           -4.03717867517668        0.03762520623050        0.01612091768148
C           -4.08829388316842       -1.35223268769255        0.00525972232033
N           -2.87904157027222       -1.91210384280602       -0.00988023650223
C           -1.96435312660041       -0.92253317964950       -0.01017430820145
C           -0.63946743945169       -1.30575266757512       -0.01086381970945
C            0.56782976560447       -0.61810811074509       -0.00417712199179
C            1.78053213479481       -1.33136933710841       -0.00236280138972
C            1.94171726593031       -2.71738349306102       -0.00659346189854
N            2.14124602584954       -3.84976035785599       -0.01011778419912
C            2.87550318191000       -0.41451651916373        0.00519378619659
N            4.17144240498547       -0.76237777122971        0.00783149858644
C            2.34064018800781        0.87186750769255        0.00877131694755
C            0.93745748048278        0.81239801927409        0.00248824340882
H           -1.37883304479276        3.38356912473991       -0.01916548548933
H           -4.85917393403271        0.72449605898894        0.02791796638739
H           -4.96587308995572       -1.97443723531111        0.00732898792623
H           -0.53206252093159       -2.38735306181955       -0.01340664692625
H            4.43457260287568       -1.73254327263419        0.00395124756811
H            4.88656948180158       -0.05756549645909        0.01233433731339
H            2.91923095885182        1.77649361096003        0.01431724949946
