28
 energy: -52.251044528361 gnorm: 0.000551506822 xtb: 6.6.1 (8d0f1dd)
N            5.70842833542219        0.66297829088977       -0.00291639344176
C            4.71690235258519        0.08222599174692       -0.00179810261539
C            3.50603717701423       -0.61145494676893       -0.00109956929231
C            3.33234112446981       -2.00578439806789       -0.00046347750708
N            2.05522646404920       -2.34447456874585        0.00028180691513
C            1.31624659876424       -1.21040763246776        0.00017113514117
C           -0.05626761915009       -1.38925361486796        0.00086136270664
C           -1.16045167713003       -0.55303482650284        0.00103257261985
C           -2.45466170135142       -1.11958675874825        0.00162090023706
C           -2.77622473238446       -2.47780732741547        0.00168919196161
N           -3.10582156806959       -3.57919282392598        0.00354320288524
C           -3.43026252040762       -0.08503103863558        0.00172088552598
N           -4.75926512287971       -0.26866932805162        0.00228162461541
C           -2.74324506684061        1.13215199098240        0.00103912286423
C           -1.35968750762305        0.90915699166345        0.00059347917914
C           -0.46867998950120        1.99501216080716       -0.00018943575961
C           -1.12056669336730        3.26425412132459       -0.00111685846124
N           -1.60177032526948        4.30455799087378        0.00026864849005
C            0.91960104496951        2.16936220222573       -0.00093422277297
C            2.02048103962916        1.33315430868885       -0.00116100147387
C            2.20479638266541       -0.04314944281186       -0.00073042549537
H            4.10542857552418       -2.75268378332012       -0.00049006724583
H           -0.30821503126874       -2.44670703901077        0.00136987163096
H           -5.38192157456370        0.51903791930908        0.00217521461389
H           -5.14101677308186       -1.19860945911546        0.00267174195605
H           -3.21530696433232        2.09684229812599        0.00086187739870
H            1.19313048386974        3.22084717256928       -0.00149960361587
H            2.96389301645830        1.87295210014953       -0.00185662815973
