33
 energy: -53.248352476121 gnorm: 0.000880476096 xtb: 6.6.1 (8d0f1dd)
N           -5.32127256753931        0.67742930588975        0.35674989233565
C           -4.18818626013126        0.51713373027283        0.22009884276342
C           -2.82335042050218        0.30703273974578        0.05705430227263
C           -1.88524945490134        1.24249646459493       -0.39787804032491
N           -2.19034237720414        2.53105845827587       -0.71896712829204
C           -0.58466754751321        0.65289759067221       -0.33607407126983
C            0.51784118358169        1.47819681209230       -0.37568404006510
C            1.86178403220156        1.33922010669039       -0.04698164924711
C            2.61840926316829        2.49890932443385        0.26262675577661
C            3.87170705708929        2.12309172678339        0.69405238448896
C            3.96306847731143        0.73330867354776        0.59192293982166
C            2.74335172377763        0.21305686128089        0.13516426049408
C            2.58994695305004       -1.14643700940976       -0.25620175991845
N            3.76800314952436       -1.79688624235531       -0.48312896157826
C            1.46272288245853       -1.94179922879995       -0.42126887734884
C            0.08763955227506       -1.86234614212602       -0.16460711573886
N           -0.52516251666479       -3.09266866203787       -0.14635343100853
C           -0.77696940744569       -0.76057120928521        0.02010964551369
C           -2.14283015712998       -0.90536577588032        0.33139776234753
N           -2.80900019900457       -2.02793354700644        0.79735261630305
H           -3.16754425442100        2.75115145889766       -0.81790416433989
H           -1.55667352478770        3.04687299017925       -1.30470739486454
H            0.26016029164326        2.51981648261710       -0.54935331845578
H            2.23818559501391        3.50416851016451        0.21563422988745
H            4.65094227446119        2.77694766452631        1.04258088887083
H            4.82879105073708        0.16310632500302        0.88410845655419
H            3.76933345479785       -2.75015340617729       -0.79867633885889
H            4.61760163875339       -1.26944560545807       -0.55606767143713
H            1.74190285195748       -2.94960272776248       -0.72916729323471
H            0.01879666120123       -3.88429045683707       -0.44678098480806
H           -1.51146030922589       -3.13199321976244       -0.34720616807365
H           -2.29752179315682       -2.57366239659879        1.47700569352310
H           -3.75466344677446       -1.82305260616830        1.09395397681263
