28
 energy: -52.231226583942 gnorm: 0.000726947672 xtb: 6.6.1 (8d0f1dd)
N           -4.75601619642696       -0.56804130682651       -0.66905735175073
C           -3.80578931812833        0.03916581783643       -0.45061766209972
C           -2.69279422011958        0.86086053678728       -0.25657997747846
C           -2.71737037913779        2.26767061069067       -0.41306221194676
N           -1.53323175360180        2.80393374765261       -0.23040975895071
C           -0.64156080491841        1.79722726199275       -0.01704069231385
C            0.64726034000650        2.20654267014251        0.26072990060585
C            1.91098695441484        1.61404547591625        0.31729826599838
N            2.91312285175571        2.44517185607447        0.72851835600928
C            2.31128490406614        0.31281493771539       -0.10083657332469
C            3.69631016527589        0.26023432999577       -0.42498724410431
N            4.80896070691447        0.27042216020718       -0.70680536253718
C            1.67423632054301       -0.92527965579144       -0.21143071094846
C            2.42415627312153       -2.07937312982005       -0.51233135898569
C            1.66067801490109       -3.21422973800149       -0.26304438167292
C            0.40631050687948       -2.82225544425391        0.17892339466382
C            0.32152260033249       -1.41294323988193        0.15960975710889
C           -0.91265496719328       -0.78826842060107        0.28123162970935
C           -1.95840907311864       -1.64438535411190        0.73686262149930
N           -2.76618673823651       -2.31131976740106        1.20083568585177
C           -1.34393679923531        0.51754878701883       -0.01348153499725
H           -3.57741537775654        2.86814348918271       -0.64635998049436
H            0.67557558985805        3.28577100184455        0.38406257146696
H            3.87536261020433        2.16243935350642        0.65253995452565
H            2.72219209509461        3.42513157564986        0.84281850795107
H            3.44724161694657       -2.08082470754737       -0.83768851418990
H            1.99019073591891       -4.22834068612223       -0.39151297624969
H           -0.40569257876104       -3.47977920915546        0.42574798885399
