24
 energy: -47.765753888151 gnorm: 0.000534233957 xtb: 6.6.1 (8d0f1dd)
N           -3.24961188088661        3.03518449149898        0.33911810663765
C           -2.36209783895183        2.31956303478274        0.21301502177332
C           -1.24040980028055        1.47235016090358        0.04927214144096
C           -0.05781586516141        2.10811373969054       -0.37503735206434
N            1.17258252023117        1.76207262614884       -0.19516211449005
C            1.91520382810630        0.72526495689055       -0.05753901143515
N            3.18355413448854        0.83250094830618        0.35309810960345
C            3.75999465038135       -0.36571919868811        0.17530143908894
N            5.05239156476401       -0.54336093739263        0.45392882653808
C            2.85481997843066       -1.35480121905993       -0.29792165059745
C            1.62636910755585       -0.73844237814733       -0.41097113692661
N            0.50091711910829       -1.39690489934073       -0.55094994950406
C           -0.74641915426554       -1.12615055714740       -0.33620647555650
N           -1.64259678502539       -2.11840798300484       -0.39450514679196
C           -2.77907171886904       -1.60822261708002        0.09075328005868
N           -3.89222197624674       -2.32318626916556        0.21596306423210
N           -2.73753180245022       -0.30401693599106        0.45896358355394
C           -1.51497018298107        0.10563786269882        0.15211205656477
H           -0.17524884176683        3.10339280195275       -0.79903887295072
H            5.50118826439305       -1.42628545173197        0.28988220237103
H            5.58434797229815        0.24246404705016        0.78650610434751
H            3.07880821520556       -2.38253799767699       -0.49849241067822
H           -3.90097657793084       -3.27766374270549       -0.09541339950089
H           -4.71578003844615       -1.88231448068537        0.58527823978590
