31
 energy: -59.417757827240 gnorm: 0.000903182732 xtb: 6.6.1 (8d0f1dd)
N           -2.94710059722445       -3.27091836590928       -0.30102578060159
C           -2.62280670640478       -2.17203102090410       -0.18941225912730
C           -2.43176872759092       -0.80732775411201        0.01916579420026
C           -3.47733261314773       -0.01792503750937        0.59469142665541
N           -4.67698759998283       -0.50572048464134        0.93868738858098
C           -3.03214197526962        1.30100572021250        0.71250022975725
C           -1.73336217312653        1.38982104817536        0.21283574950319
N           -1.20833923839813        2.54158405906208       -0.10973947214604
C           -0.04896821109934        3.04044084298709       -0.42146174490720
N           -0.10068759033842        4.21319304991532       -1.10070989560316
C            1.24117701102661        2.62455198957304        0.01342095835108
C            1.75717546373194        1.38219802442575        0.25006573034373
N            3.05891718664911        1.32758648622863        0.64656732045201
C            3.44420703510953        0.06815847316081        0.58598909620266
N            4.67310410633485       -0.34737270132279        0.90919143078838
C            2.37999350621610       -0.79726379061137        0.13040070896651
C            2.57736926156139       -2.17293536226988        0.04816358986122
N            2.90017950533152       -3.27768542246597        0.05391307437573
C            1.25945272860638        0.01729486266775       -0.04707145466734
C           -0.01501779082353       -0.49871000332064       -0.37734175083412
C            0.02101273245662       -1.81372990565429       -0.91228385609865
N            0.06230222735232       -2.81156834340399       -1.47699682290352
C           -1.29102542240086        0.00301972238257       -0.13123830799628
H           -4.88284039277265       -1.47714914151258        0.77523779474902
H           -5.36120314700968        0.07784982864431        1.38493748661310
H           -3.61103313299811        2.13243999982427        1.06401116588149
H           -0.99840137024641        4.59931779364518       -1.33394516538689
H            0.73133076036114        4.74563093117544       -1.27598604250230
H            1.95812374144524        3.42299311816205        0.15978448421360
H            5.34673876074759        0.31849370926365        1.24187165908159
H            4.91084458200538       -1.32107230326989        0.83488781409745
