30
 energy: -50.104694736220 gnorm: 0.000765649171 xtb: 6.6.1 (8d0f1dd)
N           -5.10781492443116       -0.82448072060284       -0.30653893554590
C           -3.98052188842926       -0.61796515374907       -0.18925411903085
C           -2.61882136073121       -0.35979728828805       -0.07228418999402
C           -1.59518261089925       -1.31158335960221       -0.02828935111718
N           -1.79974619847398       -2.65478843332585       -0.01782378913858
C           -0.32998389046765       -0.63577964258360        0.03615835688764
C            0.83518907797856       -1.33796239293424        0.24929556757529
C            2.19897644607022       -1.02248397578856        0.24956201527367
C            3.16303673566124       -2.02561103822393        0.48053745697279
C            4.43195598748216       -1.53144225861776        0.20253904539185
C            4.29678616866900       -0.22825197244125       -0.25044056598269
C            2.93532031728694        0.13851409684197       -0.20761864701663
C            2.48762415912981        1.38835307577074       -0.63495418290838
N            1.43352530514129        2.05914179330293       -0.30708549832180
C            0.25835066794557        1.87636482183744        0.23661629175807
N           -0.22034633590554        2.98190090942578        0.88757036481933
C           -0.63758605725705        0.79724040144414        0.03809090341727
C           -2.02907965375168        0.93419629986960        0.00199316151884
N           -2.76165013345877        2.09198552159172        0.03265650185768
H           -1.03985203060538       -3.26651664051180       -0.25926854425404
H           -2.72790664113285       -2.97816002091004       -0.23462967508759
H            0.67281284175664       -2.39614319832472        0.43923951259613
H            2.93705641885747       -3.02742759733324        0.80259666655573
H            5.35497027415315       -2.07335977061374        0.30250615427401
H            5.09495360047148        0.42611956315600       -0.55337587999515
H            3.17931394763596        1.95962507858177       -1.25281008317350
H            0.45743036536057        3.69512498575297        1.10448885491245
H           -0.98487380948357        2.85905513043238        1.53030883296163
H           -3.71975984072499        1.99768670266499       -0.27049953846083
H           -2.29376260864746        2.92561688337715       -0.28851963224569
