25
 energy: -49.064418112609 gnorm: 0.000791436714 xtb: 6.6.1 (8d0f1dd)
N           -4.81119062246881       -2.11069060914741        0.42776363662630
C           -4.16584083024209       -1.18692184404395        0.20469295152632
C           -3.36193687927473       -0.07971473749342       -0.06577268671787
C           -3.76345615768467        1.14774454163288       -0.65565594044003
N           -2.77773311076193        2.00967500661984       -0.75297827436537
C           -1.67279293127980        1.43192450522863       -0.21846417186020
N           -0.66066826818735        2.17393147256650        0.09286266892269
C            0.55929614947436        2.05934672614694        0.48410314624392
C            1.51642690859569        1.03746970460584        0.23859635527892
C            2.83694835984522        1.55551825302655        0.33647840502366
N            3.85585889026632        2.05275889817176        0.50189289960949
C            1.37073259201204       -0.32355748175382       -0.00811209094980
C            2.47963799370251       -1.16697482148549       -0.28993172010705
C            3.76611227281893       -0.79291840101883       -0.70171078893864
N            4.82365443728917       -0.57889699595712       -1.09322412010572
C            2.08798121902095       -2.50780592817147       -0.14680501728923
C            0.75036274484683       -2.54407262782230        0.20097893752026
C            0.22561081815082       -1.23560826132018        0.24387657874082
C           -1.13898356279941       -1.05575486137280        0.38443613884455
C           -1.97263235758679        0.02951606096189        0.15223878593209
H           -4.75156406147160        1.39533474825401       -0.99900806985427
H            0.95814811043177        2.96879431731272        0.92936033099531
H            2.73459994718875       -3.35303724134222       -0.29372310361752
H            0.17194111867887       -3.43367154948925        0.36811906602689
H           -1.68028318316512       -1.98599665430961        0.54052143035539
