25
 energy: -48.274483725939 gnorm: 0.000720979778 xtb: 6.6.1 (8d0f1dd)
N            2.35713673827761        3.08817975271389       -0.20610743186898
C            1.55282226122408        2.27225657272675       -0.16137794506408
C            0.48039963280144        1.34269606947816       -0.18920208004232
C           -0.75632764470925        2.00149244673186       -0.45718128471026
N           -1.94988216706393        1.70052056049719       -0.10411037010778
C           -2.65598315381605        0.65619194446656        0.19378733574755
N           -3.86832052294270        0.73575881906648        0.75731834276238
C           -4.41804156630267       -0.45900671449653        0.53925360159668
N           -3.67942921986621       -1.35310754172113       -0.10999158952269
C           -2.48492523802700       -0.75432520652865       -0.27964090745986
C           -1.35633728472786       -1.48569137052220       -0.56636732447279
C            0.00651664628063       -1.22653275435785       -0.39698767742167
C            0.91057657576213       -2.28137007524097       -0.42368934054531
C            2.18928440289919       -1.83897674459443       -0.02848047219982
N            3.29121754977024       -2.58565613465766        0.10283228640674
C            2.10752132496994       -0.44666944660311        0.21710680110587
C            3.21373295903002        0.27133303279672        0.67959383358973
N            4.18636031763117        0.71975884675467        1.09770441125048
C            0.79045236111378       -0.00338708591641       -0.05156127608886
H           -0.66577245050974        2.99123412864729       -0.90189089374068
H           -5.41644652592950       -0.68329068977653        0.86752848181372
H           -1.57884436484511       -2.52915144186747       -0.76626758353134
H            0.66369588640319       -3.29897678242572       -0.66309158946706
H            3.27196425419607       -3.57027233414765       -0.09517826706919
H            4.14749281453014       -2.16148537601114        0.41887065995813
