22
 energy: -39.502022557394 gnorm: 0.000918107104 xtb: 6.6.1 (8d0f1dd)
N           -4.35373445933028        0.92179020483050        0.04049514849053
C           -3.09875250866753        0.45732800697482        0.01601065409945
C           -2.68333751409713       -0.83862334551158       -0.39132546499588
C           -1.31943363371116       -0.90718451891589       -0.17082337890214
C           -0.62561445520621       -2.10353774055478       -0.00615858353417
C            0.70050140568229       -2.40344265796181        0.29499635782763
N            1.81765823920959       -1.74108719093762        0.17922559145503
C            2.18845580971970       -0.50024384459461        0.13620628026581
C            3.50819938393306       -0.11573657907936       -0.18202865077413
C            3.52036764276426        1.26516539461043       -0.20770695364500
N            2.31018471013290        1.81088809661385       -0.00439838241206
C            1.44510157288023        0.82666437699860        0.21912984959485
N            0.18153216960756        1.11140907946003        0.33456935711996
C           -0.95068938648011        0.50921953698466        0.25431544814930
N           -2.07885802601078        1.21543895155849        0.42797734355331
H           -5.11142915617090        0.38898409535839       -0.34508449041240
H           -4.50314690330911        1.86815833806236        0.34363324340394
H           -3.32205599156048       -1.61501731366399       -0.76680517340011
H           -1.26607361987299       -2.97877668984966       -0.06030218406398
H            0.88329018870491       -3.44909514463484        0.53952491844773
H            4.33830365807472       -0.78278399988615       -0.30350500319193
H            4.36794306700877        1.90904587043794       -0.36510457497538
