23
 energy: -48.829368831070 gnorm: 0.000795707675 xtb: 6.6.1 (8d0f1dd)
N           -4.39083777788855       -0.49634935136113       -0.46320478801889
C           -3.40456662234293        0.03872950629779       -0.22099153554674
C           -2.26227486240762        0.77861011710022        0.09912514261865
C           -2.30509614683446        2.03602462392797        0.77806878655290
N           -1.12445199239027        2.55346904477231        0.99877356643462
C           -0.21364717010061        1.72457720986958        0.42730820740608
N            0.96212477533323        2.16035183073788        0.17236610638523
C            2.06481302706327        1.62873337471873       -0.33713850122408
N            2.74264667059127        2.36397835946505       -1.22926693761960
N            2.65054126098194        0.54997124074057        0.13995660923233
C            2.18710244630809       -0.62318688963067        0.41976933533711
N            2.95567199215823       -1.58849817837272        0.94534777747722
C            2.27652136186396       -2.70838113189198        0.75268169425197
N            1.07490929797621       -2.59729117928723        0.17036478062830
C            0.89371607145978       -1.28890412397703       -0.01491960373738
C           -0.37162263870232       -0.78913715114310       -0.34232033814299
C           -1.27289860212977       -1.79046776959454       -0.80035246302130
N           -1.96334376915463       -2.59040021663750       -1.24060903565920
C           -0.90624173138809        0.47375345289248       -0.06510038726659
H           -3.19983047985195        2.53909907782411        1.09999486457246
H            3.67816964139993        2.08608496956287       -1.47375590566275
H            2.42515308801259        3.29446163785187       -1.44197369402044
H            2.66297220624247       -3.66606855706584        1.04927197522211
