24
 energy: -48.549139931011 gnorm: 0.000825183049 xtb: 6.6.1 (8d0f1dd)
N            4.38493631882271        0.56819752598717       -0.28318134862237
C            3.39666448598043        0.01159178491707       -0.10489207393381
C            2.25757569645658       -0.75761598917375        0.14714466742803
C            2.30183131411769       -2.03108383445215        0.78734328042628
N            1.12135443442133       -2.57688667370660        0.94508676782404
C            0.21653775210019       -1.74081600898898        0.37781999811578
N           -0.95148503058473       -2.19084089889278        0.08560523178228
C           -2.06618529962261       -1.65953959740593       -0.38311188906028
N           -2.77543403084151       -2.40201372922890       -1.25139144884898
N           -2.64704499609491       -0.58359570557130        0.11325986276934
C           -2.18656411599262        0.59800256094924        0.38606631290021
C           -2.96078626874215        1.64676815334661        0.92125026238480
C           -2.26362621618505        2.81133885845700        0.65583977241947
N           -1.07396715957923        2.59937541545359        0.06513514992167
C           -0.91768982149702        1.28273572601842       -0.06447276480546
C            0.35698691406737        0.78328278370011       -0.35042003912725
C            1.26679609168850        1.78618854458552       -0.79116796315062
N            1.97391398125406        2.57743899127143       -1.22023943064062
C            0.89910794518309       -0.47482819896774       -0.05999879494066
H            3.19291377279489       -2.52845348245147        1.12706228066629
H           -3.72424314388022       -2.13923427562755       -1.45511621996781
H           -2.46335675016914       -3.33556293759349       -1.45710357103248
H           -3.93648620806676        1.54862780167775        1.35059435786197
H           -2.56750932123047        3.81987773059621        0.87213014292968
