28
 energy: -57.020720039146 gnorm: 0.000926358176 xtb: 6.6.1 (8d0f1dd)
N            5.46952577693385       -1.48602718416069        0.06388332700385
C            4.64413357075408       -0.68720515984512        0.09723092971562
C            3.60637340002094        0.24346747604646        0.14483256909150
C            3.70532452230261        1.63600117292306        0.31291464307589
N            2.52699942463161        2.23214769520880        0.28565941551885
C            1.58558137239607        1.29457512101655        0.06959364257864
N            0.36019316537350        1.68719914562468       -0.07237646141641
C           -0.82099408413945        1.17816739984377       -0.08799824205771
C           -1.95386508636228        2.03973138875775       -0.23256244885546
C           -1.88609374515369        3.40623664956680       -0.53667619815728
N           -1.86437521066117        4.52157388499849       -0.80307516579951
C           -3.11008295006604        1.32860830410604        0.05914657595729
C           -2.77227381214214       -0.01360591396608        0.29640009353845
C           -3.70424054118857       -0.95118231311424        0.76582815051906
N           -4.49380373675297       -1.65259585799678        1.21497205273910
C           -1.37397276262964       -0.19682829069863        0.13310101829542
C           -0.81985472770257       -1.45907473581526       -0.08322603647468
C           -1.80276334276891       -2.45239912526241       -0.36688935390880
N           -2.53507552508189       -3.27412609595488       -0.69034827216667
C            0.50846695646232       -1.98294983597941       -0.13941124082735
N            0.60130382854127       -3.33031719277396       -0.28679321002570
C            1.75621871608463       -1.34611714283070       -0.01397863985966
C            2.22241622078695       -0.05128823711457        0.00787684794092
H            4.60727957903036        2.20395496836729        0.45172563832134
H           -4.10358807178519        1.73461249534651        0.11657808994200
H            1.50220705124698       -3.76863547761495       -0.36324550451249
H           -0.21876208750340       -3.90914210649716       -0.35793761258900
H            2.56668818416828       -2.06828007858160        0.07444897451129
