23
 energy: -39.240006469807 gnorm: 0.000751291566 xtb: 6.6.1 (8d0f1dd)
N            0.00155166705146       -2.50509702257917       -0.23096863533316
C            0.00040827551653       -1.16385951883637       -0.13496847712262
C            1.27449723218050       -0.56876375538581        0.08016695392499
C            2.45436576986750       -1.30857718283898        0.29710277099028
N            3.56036841704938       -0.56595075906080        0.22675117518191
C            3.17134165983036        0.66198948384813       -0.09665673173101
C            1.77093111554059        0.77180991354850       -0.17402965892444
C            1.09950941560436        1.97192242237260       -0.43020262303421
N            0.00018365342482        2.37207956722152        0.10821981721199
C           -1.09846190860163        1.90201169427882        0.58851838954063
C           -1.77006915612110        0.74744266899046        0.17332641598090
C           -3.17071443206836        0.64872872045237        0.08548164214203
N           -3.56069805470840       -0.52387006771072       -0.40096179625234
C           -2.45490238112775       -1.24945874552324       -0.57538991781879
C           -1.27437178158958       -0.54577441122967       -0.26288196969564
H           -0.86133791873774       -3.01058993708350       -0.32029157525481
H            0.86535408422033       -3.01653685622387       -0.21275524679017
H            2.55756139291960       -2.35342764955021        0.53539429020072
H            3.88319462274456        1.45949096308129       -0.20552765147763
H            1.61873827679615        2.72988139195751       -1.01203089147240
H           -1.61733562591966        2.57401603781573        1.26810087159165
H           -3.88224279430752        1.42370275429882        0.30398016644406
H           -2.55915255796457       -2.25237538974347       -0.95277064540209
