26
 energy: -52.010296411357 gnorm: 0.000694180709 xtb: 6.6.1 (8d0f1dd)
N            3.57522269999899       -3.20299055226505        0.16337878048634
C            2.63386545907256       -2.54683495812764        0.14410005592476
C            1.46453388028450       -1.74829607441019        0.13439060647802
C            0.29534064141100       -2.46776185972648        0.42046140079891
N           -0.94747872273751       -2.23469619728158        0.14059812651217
C           -1.73556109501404       -1.23593506927974       -0.06978943010454
N           -2.99347161635489       -1.42154278545355       -0.49102305939407
C           -3.61046552117868       -0.26013029608221       -0.25907202387030
N           -4.89834220734228       -0.05867877440023       -0.51077592181531
N           -2.83374794320927        0.73391188163124        0.25667252609751
C           -1.61830004464926        0.21889100388824        0.32014536262266
C           -0.49664412592625        1.04224466149766        0.48731702983607
C           -0.82628020082821        2.40236141513178        0.74911798113459
N           -1.10768936825121        3.48470801905540        0.99688597772060
C            0.85518100798617        0.83352950536850        0.21049626543112
N            1.61684922015400        1.92628759707124        0.13351985053661
C            2.85219727374990        1.54525979885981       -0.23990317790666
N            3.81528402488939        2.44799873735561       -0.42714339553342
C            2.94261906723875        0.14119383233871       -0.38364043237889
C            1.69329555869112       -0.37536166134127       -0.08424232876674
H            0.45262523718801       -3.46644393829067        0.82561284578160
H           -5.30942099278868        0.82608597787350       -0.27109652714375
H           -5.44701594670831       -0.80196862446026       -0.90452522189167
H            4.74135271733664        2.17226220319511       -0.70024293078433
H            3.60134774261406        3.41725236899453       -0.26567299621633
H            3.82092209047344       -0.41294868554352       -0.64971898755449
