26
 energy: -52.793422644492 gnorm: 0.000848614914 xtb: 6.6.1 (8d0f1dd)
N           -4.11673549965814       -2.26095472872221        1.51390077789209
C           -3.69131145524376       -1.36719980957112        0.93178945938159
C           -3.19367884547868       -0.26826208563356        0.23139259263754
C           -3.90337178659026        0.58856200290384       -0.63248598216197
N           -3.19149740977101        1.59635371904114       -1.12121680708130
C           -2.00071771317680        1.56643712049987       -0.51228569448631
N           -1.24154298173321        2.55062186875445       -0.27680730813840
C           -0.11064222734665        2.88959638453435        0.27805795578640
C            1.11604511126954        2.23425990967548        0.29561332772951
C            1.40707427356750        0.88226310102199        0.18606300079261
C            2.72703021877383        0.39173742885511        0.07027922207623
C            3.89343957518351        1.15797978419998        0.11070172157096
N            4.86817947350155        1.76624368854186        0.14299007213866
C            2.70059271839878       -1.01009377604564       -0.12584340002718
N            3.75976468053061       -1.80648571259187       -0.30285497278087
C            1.34344139816970       -1.42249985463950       -0.10926985119540
C            0.93029363173309       -2.74577239692897       -0.28676795576811
N            0.65696363114228       -3.84935764932155       -0.44750237907995
C            0.51743963115694       -0.30217808089973        0.12185988648937
N           -0.77080627371883       -0.46630348899158        0.28789007378209
C           -1.85516642206944        0.18739012727838        0.18712537860806
H           -4.93218765333848        0.46974892732543       -0.92430537869852
H           -0.12836586265754        3.90279344612393        0.67100531623402
H            1.98035794858163        2.87190867690970        0.44499818080797
H            3.62969338065005       -2.79259301990427       -0.45380326996877
H            4.69130146562516       -1.42828239621239       -0.27219674674375
