25
 energy: -52.283087871373 gnorm: 0.000977340472 xtb: 6.6.1 (8d0f1dd)
N           -4.38709722535315       -0.77689169431916        1.73544209002850
C           -3.46773186914293       -0.94559455538733        1.06763620255418
C           -2.36107368658952       -1.20821866881054        0.26091348178569
C           -2.22473219148679       -2.28533118264304       -0.62578725812351
N           -1.04801962596905       -2.33672397466503       -1.24496786497597
C           -0.29554851167904       -1.34029353879943       -0.76349093605460
N            0.98848374760855       -1.37310999490968       -0.85806560544632
C            1.97848891673008       -0.67091852963870       -0.40329106905718
N            3.15255109931087       -1.20188383652068       -0.09198528221911
C            3.88662515091921       -0.17795687861087        0.38704114111069
N            5.13105115216818       -0.34514596704045        0.80748395140643
N            3.27671759119694        1.03291711809058        0.42658238045534
C            2.07236899814536        0.81781134454429       -0.06403154939031
N            1.18567976186294        1.74909388614528       -0.24515563453981
C           -0.09549114223639        1.82798521262541       -0.36961075949876
N           -0.58149746553959        2.91197725738198       -0.99893280763344
C           -1.10401534348481        0.93204075123296        0.21563175048075
C           -2.18465793236996        1.63222031269858        0.79635009912675
N           -3.02113708587429        2.28036742224137        1.24250383916754
C           -1.17995181253106       -0.43122622898613        0.08621314901961
H           -2.96836953249397       -3.03798649227501       -0.82096549215291
H            5.64376021015243        0.44536368005258        1.15718080189853
H            5.54660937595554       -1.25899842042659        0.75505294864300
H            0.07161955824894        3.60376688954005       -1.32956099109006
H           -1.56142259714960        3.13893688078114       -0.95761365959519
