24
 energy: -48.549862405843 gnorm: 0.000762213920 xtb: 6.6.1 (8d0f1dd)
N            1.47684756460094       -4.31028655856566       -0.21863508737666
C            0.90374035452458       -3.31874562490759       -0.16634673729785
C            0.18375448143802       -2.09924880899158       -0.11527376598732
C           -1.20868980259606       -2.24538807686793       -0.08767509019333
N           -2.12900444121546       -1.44303003378870        0.36831613688463
C           -2.49664915286963       -0.24093446733231        0.42971406603498
N           -3.61883660153396        0.29746914135783        0.89961581716381
C           -3.80414905229737        1.39162125288292        0.16044023429167
N           -2.85451129450693        1.73875110930786       -0.70652829196851
C           -1.85746945965182        0.88942288921662       -0.47718641539796
N           -0.61377104619436        1.04156193254719       -0.60779564519712
C            0.52948653814711        0.48384560810032       -0.29321660808726
C            1.67548883502024        1.27021765007766       -0.09321774535960
C            1.75880423483988        2.66360220468750       -0.10567965093616
N            1.90074951940207        3.80383896033584       -0.09748554053021
C            2.79755020297990        0.40913592062186        0.10510205469498
N            4.05287732250766        0.82809569607085        0.31072416196592
C            2.34399522793542       -0.91545581208906        0.06234880505966
C            0.96541978311590       -0.93179328189901       -0.13991196227616
H           -1.60074173828775       -3.21965906561299       -0.36943949024742
H           -4.69872603433870        1.97938962764174        0.26230623482703
H            4.80391132516259        0.16619479620487        0.39556566258306
H            4.25753927761978        1.81247093967187        0.34065936955822
H            2.95966276620097       -1.78534527036696        0.19505265269123
