26
 energy: -52.006158923224 gnorm: 0.000634877768 xtb: 6.6.1 (8d0f1dd)
N            3.95383862978237       -2.23498829863446       -0.35424632760842
C            3.29223492429022       -1.32289248949419       -0.13039493569919
C            2.58372851329588       -0.16030392939251        0.18021971760451
C            3.14355684660269        0.92094197187093        0.92237400538078
N            2.30857627059073        1.90875986805916        1.12608526394427
C            1.15712921854654        1.58999530686037        0.47794674461389
N            0.31670523689703        2.51735525264960        0.20387357182994
C           -0.87742378017351        2.55124165642023       -0.37509103955413
N           -1.09075638149587        3.58002534748070       -1.22177426713792
N           -1.91763627824692        1.83006355661856       -0.03299625536125
C           -2.04444874414066        0.55499906682585        0.23203667647489
C           -3.21433183120323       -0.04326189829446        0.68339823363722
C           -3.06791186380891       -1.42093389066419        0.45253287869464
N           -3.95112025343292       -2.39508514810578        0.68032510404745
N           -1.85476755164262       -1.73041069767973       -0.07394467474437
C           -1.15852102483807       -0.60434551464135       -0.16027963836968
C            0.21847519797677       -0.69527797802662       -0.41644390627041
C            0.60621310099384       -1.97823598242790       -0.89088798352965
N            0.89323480220495       -2.99033828977723       -1.34401481345224
C            1.24377013200140        0.18090712319006       -0.04831161810466
H            4.14883231958518        0.95899945645949        1.30376085057542
H           -0.38884027139932        4.29656210914939       -1.29158167320524
H           -2.03588427693148        3.78710122713484       -1.49439960040644
H           -4.08612957925651        0.45837211380115        1.04917729688336
H           -4.82607642281562       -2.20891477478122        1.13571456920274
H           -3.69214798738187       -3.33703985470045        0.44201495715421
