25
 energy: -48.266414095192 gnorm: 0.000919329037 xtb: 6.6.1 (8d0f1dd)
N            4.41493250989738       -0.54142553505952       -0.25275992488630
C            3.42137426207765        0.01256490324463       -0.09595910166123
C            2.27871957792516        0.78323583464648        0.13183617825701
C            2.31151641353727        2.07554183241345        0.70230646553999
N            1.11883689290336        2.63468024374154        0.80004081043147
C            0.22657106644746        1.75825289454796        0.30008515418437
N           -0.95665082464992        2.17929293441640       -0.00837780198129
C           -2.13816093586352        1.74214428140799       -0.31790889509587
N           -2.91471883609574        2.59439699436087       -1.02206429163222
C           -2.75046969913149        0.54627241904053        0.17062929587684
C           -2.21084878936907       -0.69460398062523        0.35458691189965
C           -3.00168601116817       -1.82565337489273        0.70120327700747
C           -2.23757433283749       -2.93914672069062        0.44416174660859
N           -1.00838147340239       -2.62515493335132       -0.00816894501728
C           -0.90440716269128       -1.29841050308999       -0.03952632518369
C            0.37579907260489       -0.77969192320762       -0.30160628314822
C            1.29340646650592       -1.79146094232088       -0.71080349494662
N            2.01741599226315       -2.58243041206757       -1.11195619102071
C            0.91163506684509        0.48019430425251       -0.05769939386246
H            3.19179479054988        2.59583592106483        1.03507077244384
H           -3.88459824360964        2.39864621255889       -1.19184944683827
H           -2.53595820527353        3.49022452861240       -1.27892898257315
H           -3.81051922930962        0.63778377278526        0.38334234042281
H           -4.01660325046023       -1.79613504419576        1.04522394524708
H           -2.50634098329308       -3.97215883319346        0.56826517962525
