27
 energy: -42.127355781719 gnorm: 0.000644480579 xtb: 6.6.1 (8d0f1dd)
N           -3.63262304158678        1.62901653056486       -0.12568907869873
C           -2.75637713576130        0.58691056469073       -0.07616147286037
C           -3.12568052858599       -0.75280449458961        0.05909071037685
C           -1.97455042557085       -1.52439641948870        0.16437329015943
N           -1.96122157947612       -2.88656352585346        0.23044655324219
C           -0.81803795876689       -0.67516070332017        0.11241462939059
C            0.44055980770109       -1.19841087968384       -0.06810115952045
C            1.73265050457878       -0.66866857163229       -0.18001620786793
C            2.83513247969260       -1.52464695755923       -0.38550574684890
C            4.01740289513445       -0.80260438482828       -0.28063519416188
C            3.69244387138704        0.50751298623372        0.03990787418229
C            2.29042094104042        0.63997031569034        0.08789079083480
C            1.66615532642035        1.82798298914602        0.48605398914218
N            0.49629601868669        2.30874939528289        0.22637574496540
C           -0.67085724588494        1.89078905711990       -0.18767496502728
C           -1.33795706300814        0.69372348396736       -0.01024667580798
H           -3.28691128543351        2.52161770405875       -0.43599627801406
H           -4.58486007413703        1.41499459047311       -0.37013365205128
H           -4.13399334731457       -1.12590799237696        0.06514446252642
H           -1.13616807889632       -3.33423922056990        0.59227539062418
H           -2.83353358400072       -3.33688709174886        0.45070811849884
H            0.44989885945913       -2.28228570349738       -0.15678880819417
H            2.76059025039155       -2.58183122486651       -0.57467642476409
H            5.01066483071664       -1.19573929884656       -0.40402460447457
H            4.38700237069714        1.31406573860962        0.19662310491842
H            2.29897360170856        2.53442232757667        1.02458832471881
H           -1.25183736779119        2.71003835854768       -0.61711795218891
