22
 energy: -39.517804900075 gnorm: 0.000520533359 xtb: 6.6.1 (8d0f1dd)
N           -4.44254104314830        0.80559463385430        0.37536884713487
C           -3.17264666110355        0.42353393007998        0.15389245107187
C           -2.16759218317044        1.26098778276982       -0.41582845425515
C           -0.96821736825781        0.58171462673235       -0.45736863481210
C            0.25986727101673        1.22268230157842       -0.62551182425125
C            1.53618344158982        0.82592190672095       -0.29089440949977
N            2.50769214528608        1.74219517292822       -0.08795150886610
C            3.45534335636173        1.09078510106467        0.57466929026619
N            3.25770935747804       -0.20856730905369        0.80397510928543
C            2.08929769645994       -0.48030557863577        0.21180814027078
N            1.72162147977641       -1.69129338611529       -0.08999838945684
C            0.61356098506568       -2.21348442120691       -0.50859671245584
N           -0.62160820275652       -1.92447991692053       -0.17395280690828
C           -1.28107563655026       -0.82672163524719        0.00840809260667
C           -2.61154582796522       -0.81347045609812        0.45512328402282
H           -5.10509565428893        0.15602494895798        0.75958857716847
H           -4.77450701910360        1.68750849198545        0.02832190365645
H           -2.32055583859603        2.28480425909590       -0.70470723711659
H            0.18848426352779        2.28427152089034       -0.83884211086973
H            4.34843823072132        1.58669329727672        0.91049786173119
H            0.72287673606048       -3.15362449306741       -1.04521767752998
H           -3.12165129280390       -1.66157173048973        0.86752955450513
