25
 energy: -53.070728950586 gnorm: 0.000868291662 xtb: 6.6.1 (8d0f1dd)
N            4.48066995713632        1.36353320477169        1.37806080989236
C            3.80500359320773        0.62917622107011        0.81037278732273
C            3.00095860213756       -0.28824048108541        0.13290982525921
C            3.42797102480099       -1.29491901810582       -0.75746400213206
N            2.44872435445670       -2.04315195358998       -1.25055876159932
C            1.32787530415472       -1.67688532319929       -0.62406797087081
N            0.32288730416777       -2.44275168729853       -0.42632021820621
C           -0.84165569475312       -2.35027724382020        0.19223103536065
N           -1.21744103010360       -3.41944175425514        0.91718618171011
N           -1.77189148964526       -1.41702939807148        0.01522782805089
C           -1.70099062514926       -0.13217552873223       -0.01607135234626
C           -2.82779389412642        0.70236031880397       -0.27796777606590
C           -4.13285171578607        0.22335691395509       -0.44937281091945
N           -5.19981121351558       -0.17380768205246       -0.59415385687132
C           -2.42710281157982        2.03264100829049       -0.25432996198865
C           -1.04359430196127        2.10833595923205       -0.00691016831562
C           -0.29369081981622        3.29117546222491        0.03682132614676
N            0.30480470723008        4.26948720467746        0.06731824336918
C           -0.52442486285906        0.80798697989006        0.16952922281563
N            0.74712361424955        0.59241859770631        0.32948127993030
C            1.58616020901127       -0.35155205186482        0.11846412500779
H            4.44414881894724       -1.46701789430138       -1.06646853793314
H           -0.64503631994567       -4.24616208986664        0.90395965300686
H           -2.17002785924461       -3.47824133956464        1.23504916997978
H           -3.07159691691367        2.88091782518273       -0.40023431700372
