26
 energy: -52.003049648467 gnorm: 0.000473769032 xtb: 6.6.1 (8d0f1dd)
N           -2.87909914071077        2.98154065583897       -0.12788220449065
C           -1.97647176758211        2.27353521442879       -0.11656086657047
C           -0.83680785088341        1.43242711988180       -0.15174323982348
C            0.34091652328418        2.10545016759752       -0.51677076045344
N            1.58465508830159        1.81620197975879       -0.29285474529747
C            2.33369047633264        0.78456083705466       -0.13892206263814
N            3.59199107457622        0.91765894819725        0.30690458301236
C            4.15942559133092       -0.29035028899925        0.26411260998659
N            5.43298940952906       -0.46506091901773        0.62012484757938
C            3.26037285421477       -1.30895617565866       -0.17689643024289
C            2.06198252407251       -0.68529895136030       -0.43331716921024
N            0.94808033226446       -1.34991506739158       -0.67201921258021
C           -0.30495776077030       -1.13513722821504       -0.50829335302644
N           -1.14892502106718       -2.18059973351537       -0.66641542738183
C           -2.31674389430999       -1.84445515948779       -0.15043424890794
N           -3.35201069311816       -2.67911938664302       -0.09006534823795
C           -2.33607006154087       -0.47466002249287        0.32551965339958
C           -3.43935852825767        0.07744211231678        0.97077104798073
N           -4.38551357248535        0.41920705648113        1.52860045821174
C           -1.09272377089466        0.06075481355750        0.01503348423180
H            0.20116283775575        3.10769036051702       -0.91725316803873
H            5.96659811084075        0.33870201909907        0.90362817628361
H            5.86855544174660       -1.36787253494831        0.56430860273405
H            3.47795321151505       -2.35303082077619       -0.27638458889022
H           -3.25258881600957       -3.60598843730759       -0.46630503743919
H           -4.21366145992854       -2.39132782921715        0.34161102070836
