24
 energy: -42.950733021057 gnorm: 0.000737186385 xtb: 6.6.1 (8d0f1dd)
N           -4.52840673066934        0.78309493508438        0.14500800196017
C           -3.23148918231481        0.44249173607173        0.04924397141787
C           -2.70851598148640       -0.75695786596162       -0.47891494027342
C           -1.33395405257481       -0.72163963828489       -0.26677516680109
C           -0.53801222610488       -1.85211557257585       -0.24948005029070
C            0.81166965527938       -2.06982478076555        0.09874375054622
N            1.14095249382393       -3.33987420380923        0.47742680351557
N            1.86381127462823       -1.28685452984199        0.00355125421543
C            2.12457502422353       -0.02351979837515       -0.00506682048754
N            3.37954937307816        0.37406891463311       -0.27921915343159
C            3.38456656633655        1.70409205431851       -0.27658322762782
C            2.13537321961753        2.27078227663694       -0.02054809175285
C            1.25419930818684        1.21023326945372        0.19592187975510
N           -0.02467490800303        1.38624438799376        0.39180641152317
C           -1.09392232011421        0.67493886553951        0.28248673108935
N           -2.27852785432826        1.25660106868601        0.52338841872787
H           -5.22514745943333        0.27263115170688       -0.36674617660944
H           -4.74145249612130        1.70613217610642        0.48026555070624
H           -3.27606777113216       -1.55494328196732       -0.91812326988686
H           -1.08617268723377       -2.77103655985477       -0.43963138925165
H            0.49195219472390       -4.09642908520145        0.35702471853334
H            2.12115015934987       -3.54990299534028        0.55593467307658
H            4.30776076416229        2.23088795888729       -0.44892821660833
H            1.89162309830631        3.31287460285994        0.03214134845443
