26
 energy: -52.787096417894 gnorm: 0.000629954944 xtb: 6.6.1 (8d0f1dd)
N            5.03907936158061       -1.27535298792743        1.80321621168976
C            4.35150641416895       -0.62053638835484        1.15659458098720
C            3.52024284011730        0.18070710741296        0.37442736545544
C            3.83893435899094        1.41539202795049       -0.23079805658784
N            2.84003818138943        1.97789485587446       -0.89068675089842
C            1.74996316614773        1.22819119832290       -0.67571877950986
N            0.55498595876783        1.65531764341238       -0.69934378675520
C           -0.65285648573364        1.25728416639595       -0.34532346897865
C           -1.60055554125942        2.21670751204327       -0.02405997038214
C           -2.82784048407419        1.59293410767615        0.28316130690261
N           -3.96690961326593        2.19914296225897        0.63074235701048
C           -2.65168146449455        0.19049376071959        0.15906252201118
C           -3.69714151320298       -0.69665092264484        0.43064015816348
N           -4.63180140818008       -1.30883116381589        0.70090341059270
C           -1.31722496249091       -0.08051562586771       -0.21284643310909
C           -0.80749873291718       -1.35995850222439       -0.40353902859002
C           -1.72061568619847       -2.44537256489197       -0.43954039622153
N           -2.39218992105491       -3.37008776864237       -0.52316234200018
C            0.52717647021300       -1.77135059443607       -0.63711182691565
N            1.63442215815424       -1.23036364605015       -0.25184727703981
C            2.20772271688932       -0.11304881613728       -0.05366972779347
H            4.80352279635675        1.89126105093126       -0.20487860844818
H           -1.41467518942263        3.27320918024673       -0.02165062493959
H           -4.01055317121929        3.19924681753496        0.71703775264035
H           -4.79324495004646        1.65135345495670        0.80599784768132
H            0.65565281457103       -2.75568965014678       -1.08008483586528
