31
 energy: -49.001781542218 gnorm: 0.000713729028 xtb: 6.6.1 (8d0f1dd)
N           -1.64843484515971        3.14458109430011        0.02567558896643
C           -0.99223202859450        1.93869212308115        0.06302742326766
C            0.37623074339347        2.08166796317290        0.30825110025422
C            1.53971430048346        1.31764617010819        0.22799586349623
N            2.69433742562612        2.04476600285516        0.36495026652791
C            1.73639127390779       -0.06709772171823        0.02125672019926
C            2.99552379752628       -0.66384385748390       -0.21280115945180
N            4.21107661448786       -0.04867077226781       -0.49023283874490
N            2.95934218200116       -2.00883893164867       -0.13684007068066
C            1.70595624567952       -2.32405275924050        0.15076005518384
C            0.85437533728794       -1.19912173150741        0.22405610650221
C           -0.51539606988372       -1.39038106831083        0.34677726660662
C           -1.62733675342574       -0.60384712086569        0.14610693634624
C           -2.91761867738293       -1.22727102963902        0.01637134632045
N           -3.19892336743613       -2.55962706955887        0.18907468686318
C           -3.82666484844667       -0.28134313472266       -0.43347313754743
C           -3.17262275467679        0.94268493407006       -0.51668244918064
C           -1.82632107266117        0.81189919135295       -0.14161319245563
H           -1.14522062860192        3.97912487197270        0.26985508891332
H           -2.64448338587538        3.16597048021171        0.13834993848990
H            0.62029905301846        3.12052522378185        0.53291939910971
H            2.62032956092210        2.99363955642818        0.69165916017662
H            3.53362230443690        1.54270917491532        0.60980068721265
H            4.90167036172585       -0.75086579037390       -0.72659732520830
H            4.15424696103941        0.67702580623800       -1.19407522928092
H            1.41396287657976       -3.35417213240847        0.25736279888986
H           -0.74800993202873       -2.43959119399174        0.51157937694997
H           -4.17826587127126       -2.79001003848949        0.23375781004955
H           -2.61743902255193       -3.07854066510553        0.82740820872084
H           -4.86003196314171       -0.46279387379487       -0.66813625699318
H           -3.65640127507774        1.83840476493931       -0.86569012650301
