22
 energy: -45.091676492228 gnorm: 0.000506721853 xtb: 6.6.1 (8d0f1dd)
N           -4.75355847628458        1.73469850833990       -0.54216968499990
C           -3.96497681207766        0.92462397549540       -0.34174137792074
C           -2.99339261050940       -0.04597254332157       -0.08524388266604
C           -3.22690846971414       -1.40032474230764        0.28772697561683
N           -2.11961410694432       -2.07701863159586        0.45419895958292
C           -1.07897131834960       -1.25957122558412        0.14979668620153
N            0.09043488246824       -1.76754761831507        0.02402073047864
C            1.31509700552796       -1.39264459051177       -0.12027005410831
N            2.28187388074045       -2.26557212287649       -0.44377018282997
C            3.42122056049100       -1.62061709991406       -0.24377953997732
N            3.31840181828956       -0.34866096144123        0.15451733118675
C            2.01145647234692       -0.08618237591695        0.17691804259051
C            1.55992147198488        1.23524019539654        0.18650261887225
C            2.62925674427397        2.17903483694898        0.23805755764198
N            3.45291142976411        2.97173104998009        0.29836713980981
C            0.30187700985511        1.83663723451650        0.04545970444863
C           -0.99618798184174        1.37992011102371       -0.09531000426603
C           -1.60064854938837        0.12493724609461       -0.11448858294309
H           -4.18751504186903       -1.86079307333350        0.43588667020021
H            4.37665988427199       -2.08997341165959       -0.38765624553431
H            0.37188323628182        2.92044811789652        0.04547477715126
H           -1.72772774361744        2.18342689468556       -0.13374711273534
