23
 energy: -44.817579542020 gnorm: 0.000821373474 xtb: 6.6.1 (8d0f1dd)
N            3.95595374369494       -1.70202558467669        0.39596571716034
C            3.18725604793893       -0.86923139637532        0.21018385973125
C            2.33408572546986        0.20864499982565       -0.03768469545559
C            2.76336358769446        1.43800585488047       -0.57915783984113
N            1.80204531772205        2.34335812772211       -0.64376025083273
C            0.68698862140943        1.78825097607144       -0.13656797818187
N           -0.28867479312744        2.54248361940289        0.24840288957662
C           -1.53372747399142        2.51416346855507        0.55465994467334
C           -2.52324992771042        1.60041185749447        0.13782695617845
C           -2.43342541942789        0.26314740213601       -0.14875604243492
N           -3.59469083664015       -0.36379016172770       -0.47464351355838
C           -3.36772773869846       -1.66056306047254       -0.46899570304795
C           -2.03493477622578       -1.97268879835223       -0.14605285335505
C           -1.36771052674438       -0.76309907502294        0.03932082767716
C            0.02691419410979       -0.70372292086900        0.25590989765390
C            0.61071429787195       -1.99178279458049        0.44123444438662
N            1.03865153906788       -3.03487849141519        0.64342834948820
C            0.93472335501768        0.34074646146968        0.15420949230681
H            3.75896128778504        1.66863583867136       -0.91284307512370
H           -1.87531640222986        3.39438396679117        1.09336532840605
H           -3.53157171488381        1.99088824133880        0.07010969060893
H           -4.15565870997134       -2.35613860166076       -0.69499202338411
H           -1.61345612352724       -2.95686138690620       -0.08564859783460
