31
 energy: -49.004411340298 gnorm: 0.000366445062 xtb: 6.6.1 (8d0f1dd)
N           -4.12219749589982        1.65684856361851        0.17576496300419
C           -3.22968510328380        0.62568309191202        0.08709371626957
C           -3.57997644214884       -0.70412437136989       -0.13378726148799
C           -2.41045974918171       -1.44785191366662       -0.26813246305740
N           -2.37735367584115       -2.81250816723299       -0.41927549903552
C           -1.27484846231702       -0.58951634162763       -0.13903781643060
C           -0.00004878059374       -1.11720156283008       -0.00010467149110
C            1.27480834109374       -0.58969890045461        0.13901676717499
C            2.41032973868129       -1.44819862900258        0.26779580036894
N            2.37708362329690       -2.81290694051417        0.41844680089462
C            3.57992425394774       -0.70454407492837        0.13371347860078
C            3.22976981688408        0.62537920776218       -0.08668591583402
N            4.12239007001405        1.65648413130349       -0.17499195512376
C            1.80727038334614        0.74949025032718       -0.06310137972123
C            1.17286344115493        1.95725069084129       -0.31412812963843
N            0.00013607690128        2.43514803283940        0.00054049549342
C           -1.17264219979336        1.95725711578478        0.31503383163183
C           -1.80717264007096        0.74965518690210        0.06356248289752
H           -5.06902464550936        1.41029974152520        0.41327655769344
H           -3.78939632849575        2.52367391169984        0.56590227917461
H           -4.58197653842793       -1.09060277458962       -0.18994183402381
H           -1.56415578148361       -3.19741145316973       -0.87296200801076
H           -3.24700512052411       -3.23285885278887       -0.70652118441433
H           -0.00010420197346       -2.20394888695774       -0.00030180188897
H            3.24669294824517       -3.23344962102387        0.70553828340976
H            1.56384788824057       -3.19788865619627        0.87199778076453
H            4.58188394024908       -1.09114734643802        0.18972308256492
H            5.06918920755468        1.40992113758869       -0.41259838468222
H            3.78967624926510        2.52348310382801       -0.56481717303689
H            1.80056784445379        2.73700861970092       -0.75346837823390
H           -1.80026728218376        2.73692172155749        0.75464957476784
