34
 energy: -56.968604285584 gnorm: 0.000950661333 xtb: 6.6.1 (8d0f1dd)
N            0.98075865379429        4.12716110497574       -0.25096300233127
C            0.76130964418827        2.99715353447047       -0.15970997611177
C            0.49857672274118        1.61956035327842       -0.05727737843452
C           -0.82108917387405        1.35730535888623        0.42298943509410
N           -1.39127981393301        2.41920637351356        1.07506998059939
C           -1.69291012580925        0.29114713732043        0.14304311994789
C           -3.10374115068257        0.47040696634659        0.09444977986298
N           -3.81187867685251        1.64813462141024        0.21669176070990
C           -3.72784469187510       -0.75373059688502       -0.16990622109841
C           -2.75660534396498       -1.73297746065963       -0.25922821266001
N           -3.00308703264449       -3.06239921936788       -0.45139203315915
C           -1.46057625821081       -1.13156554062071       -0.07962167305026
C           -0.34240483673113       -1.92291349592239        0.01579419485226
C            1.02458813585107       -1.67687938321733        0.12134566062797
C            1.92442189918460       -2.74289085047387        0.32845315341226
N            3.19467516528387       -2.36096038265561        0.33208163109516
C            3.18459045163517       -1.04168593372273        0.07087077208524
N            4.39260155140006       -0.37004287007032       -0.00272147904695
C            1.87232913217952       -0.52471057389429       -0.07561884007284
C            1.60515676544179        0.81810266789495       -0.42043431981808
N            2.62962756141483        1.46857219765799       -1.03466404166696
H           -2.21401304482085        2.24748052360656        1.62674888350306
H           -0.80540275690190        3.19253601223015        1.34299570484139
H           -4.75817543133879        1.58238871862426       -0.13122871997701
H           -3.33120533123736        2.48235315258462       -0.09116463563977
H           -4.78653843009411       -0.89555250034627       -0.29199057108429
H           -2.25940852400543       -3.63278131713638       -0.81867943026119
H           -3.92695936765513       -3.30299533231285       -0.76986532677735
H           -0.55453979623084       -2.98862568919325        0.02255812076676
H            1.66516678636035       -3.77352317042553        0.49642615598772
H            4.39862384977048        0.54802294343118        0.42221026125041
H            5.14348855177397       -0.95919843638238        0.33343143762088
H            3.39262486897041        0.92773602307509       -1.40381113590752
H            2.51520334547205        2.42301985098107       -1.33073868996018
