26
 energy: -52.784237748568 gnorm: 0.000744999060 xtb: 6.6.1 (8d0f1dd)
N            2.24382430425811       -3.50170296507248        0.47389531232260
C            1.43251445619105       -2.70596383169576        0.32327682982673
C            0.37285571183497       -1.76910495412794        0.21508319728534
C           -0.88847696492523       -2.34501012105538        0.49830618965152
N           -2.05951128696084       -1.98140461759440        0.09993845341661
C           -2.74561617806263       -0.93091380186915       -0.14727717346134
N           -3.98519789503407       -0.99456070068919       -0.67396320626234
C           -4.52101167101044        0.21246687565353       -0.56120298904238
C           -3.64472041653844        1.17779454026071       -0.04210564158644
C           -2.43863172529768        0.52156806603741        0.19366607602558
N           -1.29929067211240        1.13760574473049        0.35463568988609
C           -0.04345985283196        0.82499212881967        0.26517490412398
C            0.91920874842244        1.86659202367039        0.29652161326081
C            0.66829351095724        3.21036242989501        0.58246399549752
N            0.52281309543933        4.32685430849885        0.81070693105275
C            2.18251306169974        1.35890371001637       -0.07582495466440
N            3.31284891761737        2.05511095857069       -0.20113591403771
C            2.04226986992072       -0.04010334000182       -0.30791731980769
C            3.10761821269520       -0.80612307675112       -0.79239511643242
N            4.03537775555292       -1.32312344748056       -1.23086730145909
C            0.72528775626594       -0.43949192369523       -0.02207493603354
H           -0.86929249709910       -3.31957144370107        0.97991536164029
H           -5.54079644860002        0.36842056976031       -0.86673941024278
H           -3.84799534178466        2.21450448280319        0.13468860253036
H            4.15712383015917        1.59676231860061       -0.50307624288375
H            3.32288220424737        3.04362817111634       -0.01213983320723
