23
 energy: -39.240334262910 gnorm: 0.000938317156 xtb: 6.6.1 (8d0f1dd)
N            0.10671680541989        3.27843085406399       -0.60761998759863
C            0.08950673525246        2.02144653935152       -0.09399586490710
C           -1.21321958939962        1.53930350490081        0.30550413643476
C           -1.77012167860316        0.30478848029493        0.25323727328580
C           -3.16928872557373        0.13002079765314        0.53125039236424
C           -3.55281899824163       -1.11745881593009        0.13281907512896
C           -2.42095257368434       -1.81288726047042       -0.35208979341434
C           -1.29581932010642       -1.00785845049531       -0.26556225737396
C           -0.01702340886436       -1.52782836062604       -0.48713251457108
C            1.23710951453537       -1.04084271693586       -0.21568731082639
N            2.29808344161626       -1.89050467760376       -0.14907011755412
C            3.26124968941994       -1.18174113997752        0.40679392862705
N            2.99640702909456        0.10933546275368        0.66267084821559
C            1.74104512785241        0.28053804124112        0.24487307373594
N            1.24705262636280        1.48370600939490        0.08342740146599
H           -0.72139658913542        3.84395483961922       -0.64296387688046
H            1.00048763516710        3.69339688391386       -0.80411206211062
H           -1.87330549311344        2.33098855689049        0.64832095344362
H           -3.80051919130574        0.90146559400508        0.93135324796864
H           -4.54729700686510       -1.52294227715673        0.18312476500553
H           -2.42447652794110       -2.82909997368365       -0.70107314363729
H           -0.01025072975295       -2.57457453252235       -0.77486879180189
H            4.22057221126626       -1.60883664588108        0.63834234079979
