24
 energy: -42.963655104603 gnorm: 0.000646204509 xtb: 6.6.1 (8d0f1dd)
N           -4.55481804386972        0.86159256341835       -0.01319527804065
C           -3.27159837213719        0.45648854324110       -0.01956794515453
C           -2.76212490054328       -0.79848324816245       -0.34630370288695
C           -1.37358736360536       -0.74319692644052       -0.14136107983827
C           -0.58148912795185       -1.86841653093866       -0.16161661938111
C            0.80033033400364       -2.07901645754144        0.07745913736747
N            1.15566887738219       -3.32707788031318        0.49214154413856
N            1.82303994057455       -1.30531548405092       -0.17177100597300
C            2.08186542023213       -0.03819787781236       -0.24513165806812
N            3.29563819705251        0.37767923864907       -0.65087393476010
C            3.32657242741912        1.66998821918151       -0.34526370821179
N            2.23574812668177        2.18868353235244        0.21423090052391
C            1.34876844122200        1.17563433024652        0.24760544347749
C            0.01904279941292        1.42440643855441        0.50429682786663
C           -1.12997839381445        0.67232036577965        0.27975841848710
N           -2.29155216996161        1.31347582823078        0.36554840859408
H           -4.73510659271590        1.83441540663206        0.16076204803641
H           -5.26372605939872        0.30062034507820       -0.44936208684992
H           -3.32597295423282       -1.65497924334535       -0.66017424701060
H           -1.12918282074721       -2.78693873034536       -0.35290819796695
H            0.48818622349728       -4.07662944906779        0.50847268308885
H            2.13685504689658       -3.54638504201082        0.50403911500217
H            4.19806727916988        2.27071450241875       -0.53654556147435
H           -0.19461597186627        2.45262760804593        0.77466316883364
