26
 energy: -47.194159742536 gnorm: 0.000744425270 xtb: 6.6.1 (8d0f1dd)
N           -3.43126823110945        2.60744877873235       -0.56264955230980
C           -2.81453601165856        1.64937799688364       -0.40271167722405
C           -2.17709955985819        0.42850718955955       -0.19111241876442
C           -2.87425411244339       -0.75509198270700        0.17800956016120
N           -4.20064234851669       -0.82598183991796        0.36493230439181
C           -1.95104268336567       -1.80173612339309        0.30156388152595
C           -0.67107051243341       -1.33745426891281        0.01253389432885
N            0.33869109607053       -2.16606693113273       -0.07336877130734
C            1.63744497127018       -2.09108545252447       -0.14712402519563
N            2.22738885381401       -3.26077432372105       -0.52030373988850
C            2.53879373429241       -1.05806564673524        0.25421100646358
C            2.41456788924691        0.30126326079126        0.27152690726275
C            3.51169137613599        1.16837007473652        0.50375220966744
C            3.13864457969461        2.41063975818497        0.03954537444128
N            1.87618379738421        2.44901404631137       -0.41998172794764
C            1.34542031616297        1.23901708677459       -0.25400228958634
N            0.06182679579808        1.10633101084983       -0.43654473754330
C           -0.79536658890504        0.14783268666404       -0.25881389335263
H           -4.76852519940987       -0.00798384152084        0.22418673765153
H           -4.63667033912934       -1.69102980903098        0.62926182656811
H           -2.19034277182628       -2.81870100465969        0.54865272730793
H            3.22256019329987       -3.34146517656374       -0.61223350566065
H            1.63666108519929       -4.02304901984480       -0.80063919382824
H            3.52707052383641       -1.43045377250924        0.50983771897723
H            4.46126827825202        0.88724047390144        0.91703034932901
H            3.73506881409833        3.30606818398380        0.01878816753249
