24
 energy: -48.545534420727 gnorm: 0.000997161640 xtb: 6.6.1 (8d0f1dd)
N           -5.58110007828249       -0.51470247293878        0.00890599240833
C           -4.53910427726807       -0.03094737963090        0.00647915440379
C           -3.26579322474315        0.54209510387129        0.00195350711560
C           -2.96606368193189        1.92969542974941       -0.00375488781602
N           -1.67827097027394        2.16870170641859       -0.00661922280183
C           -1.02506947651214        0.97951033545905       -0.00317383793969
N            0.26261054102131        1.03267717564838       -0.00519869321622
C            1.22088738893045        0.13308744010140       -0.00345926793320
C            2.56119410362947        0.53055051925132       -0.00609141407132
C            3.10546139328608        1.81409581332999       -0.00936009024551
N            3.63640337930527        2.83290766259524       -0.01904888451409
C            3.34446590708586       -0.67579222186621       -0.00336462312635
N            4.67225164874699       -0.74117900334469       -0.00479824650893
N            2.57774073782112       -1.76342830029958        0.00128265143389
C            1.28975612937432       -1.38768315012486        0.00183328194517
N            0.41620458122009       -2.35237680450576        0.00648914388638
C           -0.89245816167885       -2.43131286498420        0.00872724395401
C           -1.95229722224994       -1.52631802535399        0.00725730462125
C           -2.03672957342018       -0.13936577253851        0.00244850240146
H           -3.68090721125832        2.73352146694876       -0.00555713497656
H            5.11241492312668       -1.64593866444233       -0.00244352316872
H            5.22875097824552        0.09695028562999       -0.00849081801019
H           -1.21018331783493       -3.47325221331433        0.01272351904163
H           -2.92536834413889       -2.00949990056309        0.01044271421776
