25
 energy: -48.273891105088 gnorm: 0.000456185040 xtb: 6.6.1 (8d0f1dd)
N           -3.64235948056235       -2.54839504890918       -0.03491301980858
C           -3.10538463707287       -1.53627763828953        0.05192458808875
C           -2.53936311777165       -0.26891972049054        0.19848630668768
C           -3.18253338383861        0.80636863004968        0.85352539339043
N           -2.46755480511476        1.91570870297809        0.87320102177464
C           -1.32953533082415        1.66521402189985        0.19830110163483
N           -0.62770464747149        2.63701614071254       -0.28530072176083
C            0.55166083611697        2.76157521749427       -0.81334820612766
N            1.66232754696922        2.18761473410076       -0.44032500174640
C            1.95397985668585        0.98914021010731       -0.03064616777626
C            3.21451500946083        0.64957886750576        0.46925430449222
C            3.36911510925478       -0.73714300812469        0.39798310070358
N            4.45624327471546       -1.44102270065175        0.74234057761451
C            2.16325510223265       -1.30879699312769       -0.09947607834931
C            1.22780136283870       -0.31080650277075       -0.29479246162343
C           -0.14761005908472       -0.57844117369184       -0.45948243937075
C           -0.41827813409414       -1.94362759178246       -0.75297553863053
N           -0.58004414705425       -3.03508168443147       -1.06390901698102
C           -1.25803890126415        0.20800514480295       -0.15846986882122
H           -4.15670671789721        0.77261712731524        1.30795664500476
H            0.66803030571064        3.59582039572464       -1.50022163760690
H            3.96047284738787        1.35935528332418        0.76774590089387
H            5.26698692922925       -0.97751550047054        1.11203705093052
H            4.48340022887392       -2.43546999746743        0.60237300407523
H            1.99803616717725       -2.36254404400708       -0.22857543078716
