33
 energy: -52.443524967869 gnorm: 0.000835934921 xtb: 6.6.1 (8d0f1dd)
N            2.12587586446132       -3.11875544863608        0.09462326754334
C            1.34198009738220       -1.99426418713069       -0.01508869240025
C            0.00832667204586       -2.30034531168092       -0.30220918147829
C           -1.24065800833062       -1.68263966561193       -0.26803114081835
N           -2.29291843668772       -2.55010863251790       -0.47770649052259
C           -1.62301949307902       -0.34837821628638       -0.01527504985622
C           -2.95147631828658        0.05870303492068        0.22416517556540
N           -4.07145219326187       -0.72254099587091        0.45168976909421
N           -3.10437139804939        1.39827330512309        0.22967551800687
C           -1.90229611232691        1.90961607498913       -0.01938865572660
N           -1.75099728788890        3.26410806904624       -0.13467805785020
C           -0.89049903863929        0.90256479534794       -0.14612198752639
C            0.43359705030782        1.25278487672001       -0.29064892667581
C            1.64923056404358        0.59873379571876       -0.15041465815927
C            2.84365578095375        1.38177906308047       -0.06989145402142
N            2.94837896960914        2.74404897233904       -0.28130738486857
C            3.88761528196664        0.56950559876342        0.35900205534220
C            3.40166513159657       -0.72259983374743        0.48193561241011
C            2.03434035369338       -0.77006688963231        0.14455450623426
H            1.72608749788078       -4.00775670539248       -0.14969240797392
H            3.11994314064954       -3.03262490895815       -0.00386649711119
H           -0.10168591908644       -3.36149274397419       -0.52918682497799
H           -2.06907305683530       -3.45948267931594       -0.84802852428703
H           -3.15635425197865       -2.14537632536190       -0.80453924943224
H           -3.90997188984708       -1.52130343959305        1.05065427992899
H           -4.84463712967482       -0.14814380793985        0.76106990051114
H           -0.85441168302693        3.64936526655511        0.11467973744643
H           -2.54495192015868        3.78407535094175        0.20552273609239
H            0.55892760773395        2.32205442919570       -0.43649432631893
H            3.89996684924859        3.07078575696962       -0.35354034562078
H            2.34459092804582        3.12932650342197       -0.99241818857131
H            4.89626372473570        0.88972653253637        0.55060964185166
H            4.00930238630331       -1.54347076411935        0.82168275677037
