23
 energy: -44.824788405261 gnorm: 0.000257884040 xtb: 6.6.1 (8d0f1dd)
N            2.72136391184487        3.56251967691778        0.23337836862912
C            1.94268980769774        2.73240479633324        0.10058519940701
C            0.94129846281600        1.74222982340500       -0.08769789786140
C           -0.29209705008197        2.30911570508332       -0.55549172598110
N           -1.49329154319839        1.95920303816604       -0.30610270441188
C           -2.15611721734168        0.91234551498814        0.08443449298354
N           -3.40787442665094        0.98815926407778        0.55307400674396
C           -3.87718280524039       -0.25613155213076        0.46632278564801
N           -3.04685773017512       -1.17196137194144       -0.02591039012914
C           -1.88041005232285       -0.52959018648770       -0.19959007299153
C           -0.69867383994227       -1.22550706039524       -0.36111754266587
C            0.62951578992119       -0.85590015431495       -0.18203383301347
C            1.63204597142460       -1.84150378132651       -0.09769460146215
C            1.45102593935244       -3.20969257454494       -0.32896304324635
N            1.31682651617298       -4.33377918275660       -0.52134570348849
C            2.85823439909547       -1.24615817882998        0.29619761471186
C            2.66255856812212        0.09954082243214        0.45126890427349
C            1.31556738504362        0.43025565750993        0.11636832414580
H           -0.19980865788230        3.25011240891783       -1.09367218211601
H           -4.87866412936237       -0.50241381425018        0.76659313604844
H           -0.85381776642859       -2.29596811115674       -0.46573055494727
H            3.77566400562708       -1.78386857702470        0.44960749933994
H            3.40706984320904        0.81967344482839        0.73459819278359
