25
 energy: -43.483317406105 gnorm: 0.000676191785 xtb: 6.6.1 (8d0f1dd)
N           -4.04993472702979       -2.01919091878808       -0.55978451212152
C           -3.38783961152063       -1.11481609658248       -0.30073412929629
C           -2.56589618769613       -0.03408067149856        0.00668614444196
C           -2.94704844137543        1.19937580350273        0.54587386949850
N           -1.92187344967091        2.03130078272682        0.70637449096492
C           -0.81598773812945        1.39757472522778        0.28203437553360
N            0.26721907731848        2.10548872299258        0.10361176043174
C            1.52615154511800        1.91904670415875       -0.13371909284001
N            2.16909190902228        3.00419808914027       -0.63957787617141
C            2.36652700180409        0.80167278972076        0.19635095828868
C            2.13895250510208       -0.53984740214726        0.22226121931003
C            3.21590358495351       -1.45076542077422        0.46368926989290
C            2.80479062450034       -2.72567163267339        0.17752809688123
C            1.45185859933269       -2.69053366156576       -0.21140113383927
C            0.97926242496574       -1.38226371574620       -0.16723336287510
C           -0.37653516747144       -1.10886263426436       -0.34435957998188
C           -1.14376480856154        0.00952896136693       -0.11310894465859
H           -3.94336235228325        1.50393318818874        0.81302952948159
H            3.16895919049334        3.03839534549647       -0.71225967278438
H            1.63349646959944        3.84537670145580       -0.76736278729979
H            3.38647933773778        1.09343285207498        0.42967704040381
H            4.19889527141251       -1.14866145138259        0.77426594261954
H            3.40486311649965       -3.61514978426410        0.24197730289923
H            0.85900559995027       -3.54837106074153       -0.47116587052272
H           -0.95947384587268       -1.99573400342615       -0.58380548205777
