25
 energy: -53.067955627459 gnorm: 0.000720388254 xtb: 6.6.1 (8d0f1dd)
N           -2.20654031819838       -3.65930627389684        0.45810353695713
C           -1.44441886376513       -2.81856894169982        0.30008106595612
C           -0.43156939002620       -1.83480296735045        0.15772802802646
C            0.86482308468248       -2.36444131292750        0.10346735518296
N            1.95021181024852       -1.86062487814324       -0.41164821392322
C            2.67354329209892       -0.84183022705100       -0.49707559324356
N            3.88237250970868       -0.63414725003200       -1.00071726353957
C            4.40663994832595        0.33180731065608       -0.24526176241183
N            3.63091883810171        0.91630854639930        0.66670730932223
C            2.42134099746654        0.41582724081760        0.46176546372170
N            1.27409423642456        0.89537200620955        0.62252653770366
C            0.01345633767986        0.71921283562581        0.29972451496184
C           -0.82320257038691        1.83065216232999        0.08814304565787
C           -0.44847134924458        3.17732629404207        0.09622252456966
N           -0.20272004101779        4.29897852816032        0.08373292194918
C           -2.15294724429489        1.37749169944550       -0.12071356437290
N           -3.22034729671326        2.14837350861431       -0.34065147302574
C           -2.14478163556345       -0.04031821718987       -0.06352177999539
C           -3.30768663450587       -0.78683872427815       -0.28105538995276
N           -4.31992544917952       -1.28767746585310       -0.49134029715592
C           -0.82858501302562       -0.48980917831175        0.15644246495033
H            0.98328646661858       -3.39813468320762        0.41752766106480
H            5.43111205717034        0.63295053710752       -0.37074182045601
H           -3.12178349865356        3.14818971964875       -0.39640577508603
H           -4.12977943983793        1.73071354578639       -0.45019227055856
