27
 energy: -58.083422436520 gnorm: 0.000479376957 xtb: 6.6.1 (8d0f1dd)
N           -4.35199884004370        1.88560865700814       -0.86500610760622
C           -3.27823937055803        1.60104280146817       -0.58508014039334
C           -1.90455366365404        1.31433437712254       -0.36799131037104
C           -1.07578428258015        2.41565396131784       -0.69409143543587
N            0.06667888226015        2.71271549393019       -0.18611813209791
C            1.11967060228943        2.14378240624958        0.29023607869224
N            2.05298318286165        2.88394703024791        0.94032120860467
C            3.16126511694887        2.18971072948118        0.95391272757460
C            3.03217737577026        0.91876812640075        0.31062222628571
C            4.09062055107577        0.01504824491329        0.17944703142955
N            5.00741263741403       -0.67303831699775        0.12325339159337
C            1.67678978498490        0.80697048230193       -0.03863551238410
C            1.00367945906092       -0.38551802347096       -0.36111891545531
C            1.86734801092679       -1.40805098756780       -0.84860339894071
N            2.56452853801684       -2.12914096260681       -1.40143090240524
C           -0.32658165193106       -0.74657417114748       -0.14090597045558
C           -0.69142709850266       -2.11184683349967        0.04940405859558
C            0.11958219325902       -3.25703865084937       -0.00604203939982
N            0.69245971883331       -4.25050130447065        0.00608126046903
C           -2.01911271454549       -2.18359112407853        0.47825818882459
C           -2.55693873481581       -0.89451280367760        0.49196156143557
C           -3.85850242732252       -0.60361664543235        0.93017096455984
N           -4.90712750970779       -0.42527668441472        1.35873694049821
C           -1.56657809042017        0.03426715601694        0.07459542088384
H           -1.52534843275437        3.20701946103430       -1.28724661520064
H            4.05609833342213        2.57314159656867        1.40944359974989
H           -2.53501513408725       -3.08279752074548        0.76020441954787
