38
 energy: -59.019974239926 gnorm: 0.000668956322 xtb: 6.6.1 (8d0f1dd)
N           -2.24666009462501       -2.81165388441756        0.54390202642832
C           -1.29100277583889       -1.82464626256566        0.40297033617143
C           -0.00295455342304       -2.24223700294141        0.73597386870289
C            1.28623854586564       -1.82813664192156        0.40304344690818
N            2.23921868275744       -2.81771352450218        0.54409649717845
C            1.76964156136678       -0.59105158183120       -0.07182958636010
C            3.08038073459510       -0.42552281298997       -0.59290332698766
N            3.95501917179910       -1.43484882061544       -1.00856564946450
C            3.39391556366864        0.92608331037702       -0.63012538799842
C            2.32407040486392        1.64146244434673       -0.09792265051377
N            2.32651042254201        3.03420903441832        0.02156057278362
C            1.26878618304523        0.74270893683881        0.20613683272886
C            0.00174626804607        1.21109264415008        0.61364910638939
N            0.00342154321739        2.43098046635738        1.25711166190661
C           -1.26658398318810        0.74615081985539        0.20622666026392
C           -2.31942190635006        1.64777525449102       -0.09783074015396
N           -2.31810680947288        3.04051361970413        0.02172406581776
C           -3.39116532175130        0.93532341763454       -0.63014202390751
C           -3.08128335638490       -0.41712714124339       -0.59300309525287
N           -3.95861015280658       -1.42405763894866       -1.00880610598740
C           -1.77102909044695       -0.58623212985619       -0.07186054414975
H           -1.97993017527689       -3.63421873512626        1.05932113369379
H           -3.20117994194447       -2.51008585909830        0.65650140034283
H           -0.00430877290455       -3.23257766485230        1.19190743022047
H            1.97023301289645       -3.63952161107211        1.05955077063285
H            3.19453930807160       -2.51871399094035        0.65675062029747
H            4.69787060372048       -1.07045483195364       -1.59076991688431
H            3.48484693510619       -2.21509690080705       -1.44866120200176
H            4.30840588062289        1.35227894287719       -1.00484702005824
H            3.05160065150432        3.45222921271479       -0.54732682270696
H            1.42586635277006        3.46094472622872       -0.15416348132389
H            0.85983853369423        2.67879819792082        1.72543280945080
H           -0.85226640321810        2.68108434040140        1.72554901544950
H           -3.04202821640440        3.46052194593982       -0.54718747172937
H           -1.41629960764284        3.46482523541749       -0.15390857082484
H           -4.30447542267573        1.36401504623490       -1.00489505801794
H           -4.70042597279036       -1.05762074790157       -1.59104880720045
H           -3.49050932451195       -2.20554381182544       -1.44891401964509
