23
 energy: -39.235019689549 gnorm: 0.000673589048 xtb: 6.6.1 (8d0f1dd)
N           -4.51105901211964        0.85864103669464        0.03480617223826
C           -3.21595624214429        0.48462752931154        0.00804877444913
C           -2.74453634747358       -0.84456332584022        0.00073774964659
C           -1.35349561651653       -0.86692011482287        0.00371914194757
C           -0.67372645134122       -2.07929726016266        0.00732845955362
C            0.65900238627909       -2.46766584459840        0.00862859249845
C            1.86213989067769       -1.78317778524547        0.00357923224684
C            2.20462114904937       -0.43827357043279       -0.00118119332892
N            3.51515840864855       -0.12512367230005       -0.00983803584993
C            3.55768033680493        1.20649920309720       -0.01707304413956
N            2.39208576652958        1.83491640874556       -0.01296469591817
C            1.46258349430030        0.85664913027623       -0.00177612865665
N            0.20835580423264        1.21643093534978        0.00768771196993
C           -0.92818244789829        0.58353869924296        0.01131597128794
C           -2.10770971196536        1.33748170484853        0.01779209364024
H           -5.23634178092080        0.17348191968240       -0.07844935738753
H           -4.74934630633789        1.82991136454186       -0.05509953089520
H           -3.37583184349084       -1.71602383462418       -0.00621461209722
H           -1.35850275532576       -2.92397842273415        0.01055325870384
H            0.78464793610540       -3.54534451184441        0.01282717407314
H            2.74591009681596       -2.41298559399910        0.00113995727780
H            4.49129601124780        1.74024845767252       -0.02600927856945
H           -2.12813437205704        2.40987358494102        0.02565036730931
