21
 energy: -40.565343831143 gnorm: 0.000576731146 xtb: 6.6.1 (8d0f1dd)
N            4.70468080276414       -1.09701670082358       -0.00203923880000
C            3.76297152757031       -0.43946153777875        0.00324076940624
C            2.60375205165076        0.33971665528857        0.00887676181649
C            2.52752568528256        1.74228541629819        0.02392367547081
N            1.27923245540777        2.17926302379830        0.02630376894023
C            0.45303209021237        1.12125600220750        0.01310197709819
N           -0.82312009829062        1.37812920282697        0.01316198933166
C           -1.89600808878448        0.65159090069102        0.00376520600094
N           -3.07122236400704        1.30353429598399        0.00676620282992
C           -4.04793333037100        0.40489415879542       -0.00489266813170
C           -3.58279784911469       -0.91237978349379       -0.01743851275170
C           -2.18371669411592       -0.85152268189160       -0.01227721593701
N           -1.48160307966965       -1.96034887113622       -0.02224838567055
C           -0.20835094433174       -2.23847297709217       -0.02158550139838
C            0.98192093438453       -1.49340000092196       -0.01229710330352
C            1.26807113429116       -0.14295322522567        0.00112474138751
H            3.35359789457639        2.43071070629400        0.03300539462825
H           -5.07367482693014        0.73045060922914       -0.00394316507774
H           -4.16801659432175       -1.81049115360019       -0.02827620378328
H           -0.04562880913953       -3.31536427010116       -0.03124718731804
H            1.86932885463700       -2.12102913374804       -0.01641469803868
