26
 energy: -52.795441855438 gnorm: 0.000948311173 xtb: 6.6.1 (8d0f1dd)
N           -4.47665693396471        1.98000451200148       -0.16459123496324
C           -3.77782078515509        1.06905979258833       -0.19355530074460
C           -2.99766630272177       -0.08667681622942       -0.27305594686528
C           -3.41624434163472       -1.27217010955924       -0.92601290992120
N           -2.52354245310103       -2.24129923813020       -0.88111481964293
C           -1.48147220798082       -1.78775251405453       -0.15960809098282
N           -0.64870874478455       -2.61045425835974        0.38346578319900
C            0.49668554687177       -2.50621899906539        0.98484136864964
N            1.50482288095008       -1.75609072389071        0.63642574134494
C            1.60888549037847       -0.54074893088199        0.20317787917389
C            2.82701768260839        0.00720024734737       -0.25685898856591
C            3.97405082805747       -0.69702319459342       -0.62671768634312
N            4.94236404312993       -1.22150620248349       -0.95428493904195
C            2.73659719351906        1.41819949801070       -0.19192036972077
N            3.71397576637321        2.27498213409294       -0.49711601403693
C            1.43420182214484        1.76631909304938        0.24322082960687
C            0.67263584936769        0.61971782466736        0.40571654060046
C           -0.73570979481927        0.64423009641258        0.49506744622314
C           -1.25343883750625        1.94666958238491        0.73975731939264
N           -1.61351628723915        2.99905443228997        1.01622309019475
C           -1.67661345448918       -0.32840921982320        0.15857191209442
H           -4.35800038246111       -1.41405984928311       -1.42536147266927
H            0.71696158597381       -3.27428483314864        1.72059899604598
H            4.60074236133955        1.93283740928862       -0.82814004160460
H            3.58187291972390        3.26475549359433       -0.38049040153266
H            1.08323630082120        2.77526850217427        0.35669631001058
