24
 energy: -48.548627218673 gnorm: 0.000652726150 xtb: 6.6.1 (8d0f1dd)
N            5.27348026934180       -1.56591550917978       -0.51266778228460
C            4.42012625701557       -0.81372989550953       -0.35693503883467
C            3.38450654279215        0.10822827653312       -0.18716411062164
C            3.45680827154430        1.49910208860468       -0.31975519195945
N            2.29319110242775        2.10561235442679       -0.09824174494219
C            1.38845774006342        1.18607025959675        0.23072212190621
N            0.13907941596708        1.51433062014615        0.33233667537180
C           -1.01785732375436        0.95029058566295        0.30421944075109
N           -2.11527077277381        1.70379940867668        0.44360060453311
C           -3.17107043842585        0.98023107936637        0.06520514193509
N           -4.40133982955770        1.48406821153960        0.05603509585629
C           -2.80536404248279       -0.35825802191372       -0.30119742653424
C           -3.68599134217970       -1.33155127184534       -0.75848398945041
N           -4.44119099291106       -2.11875041897294       -1.12372251553588
C           -1.42974567272478       -0.47361935182480       -0.04404542684702
C           -0.81045651835410       -1.68026025137303        0.22036221261751
C            0.49327517207047       -1.98721283229169        0.63925744333205
N            1.61241094425234       -1.36673326030777        0.45343842147481
C            2.05910165387560       -0.17771732305155        0.24423198269975
H            4.33172170954987        2.07522005714052       -0.56326776489516
H           -5.17903610393013        0.94148170346184       -0.27914536014444
H           -4.53306695304408        2.43872283507997        0.34504681250183
H           -1.47494943994133       -2.53805611552736        0.17787065557369
H            0.62942559468319       -2.98208908814521        1.05666653769947
