27
 energy: -46.118614617132 gnorm: 0.000843615626 xtb: 6.6.1 (8d0f1dd)
N            4.76320072400166       -1.47284764268683       -0.19633537343333
C            3.52100583267788       -0.93784326349717       -0.07154103590072
C            3.17444284711289        0.39566368626066       -0.29807766066721
C            1.79537920832511        0.56770725799690       -0.11442351822009
C            1.21351152501075        1.81185607195372       -0.16050852245132
C           -0.11355113350428        2.25711669694571        0.04446811580799
N           -0.25026288045551        3.59791201174766        0.31409869069416
N           -1.26667888101588        1.66901482027668       -0.13943455878680
C           -1.73996444544929        0.46240212537079       -0.18099606234563
N           -3.02346925727846        0.28502607002213       -0.50930364662738
C           -3.34638923577312       -0.97863276028580       -0.16866066290400
N           -4.61404199848263       -1.41415228190026       -0.32356025405232
C           -2.26730314695945       -1.69999877035295        0.36431555785892
C           -1.15623204852730       -0.85863862071388        0.29140722517030
N            0.06419486267755       -1.30551143587283        0.43943630655509
C            1.25435912821472       -0.80442713126812        0.22301489890077
C            2.35529238201123       -1.65707826235106        0.24926372877967
H            5.55208432988268       -0.85097692331805       -0.23965104953451
H            4.92586029311652       -2.39098067211282        0.17952820588267
H            3.86267400024876        1.18158315632739       -0.55370197869732
H            1.91377334474886        2.62548644154008       -0.32596220363987
H           -1.18182810818683        3.90747994559319        0.53439611448501
H            0.52241829991518        4.11090615767159        0.70088871049698
H           -5.23495579424350       -0.83822673467659       -0.86472450098070
H           -4.81730316350893       -2.39267784396835       -0.22825906800704
H           -2.27671341750150       -2.71831281904651        0.69753902148067
H            2.30172581644295       -2.70743526495525        0.46179896893582
