29
 energy: -45.560400676742 gnorm: 0.000773970071 xtb: 6.6.1 (8d0f1dd)
N           -2.36042546847885        2.56895263282898        0.10641496529359
C           -1.48520628300043        1.52769527899672        0.07858434003922
C           -0.15899978002000        1.90554791050870        0.28994173334283
C            1.11657057622246        1.34397639430861        0.21884235016656
N            2.12175495759024        2.27365874347216        0.35116717260976
C            1.57429490003856        0.01718360807624        0.01533014290236
C            2.91781897138234       -0.29660252579920       -0.28020613178675
N            3.93145786848159        0.56599154519590       -0.67767215158742
C            3.12823577197302       -1.68156606405943       -0.10948756743971
C            1.94785652782473       -2.24922249642963        0.28341171364935
C            0.92527801317332       -1.25766487245023        0.30854561115778
C           -0.37960398078892       -1.66824513443729        0.44756263580655
C           -1.61516112903413       -1.08073479367426        0.18948251016477
C           -2.75553627362443       -1.89519888556351        0.01049542646188
N           -3.81486769943564       -1.21232752027028       -0.40384803744915
C           -3.43084073457186        0.06850900000775       -0.45562339202373
C           -2.08405167585362        0.25462018462129       -0.10239868162652
H           -3.34238101331364        2.40577811483468       -0.01278559253263
H           -2.03140030133083        3.51609275424356        0.15134172727383
H           -0.09735768682383        2.97401686326610        0.49772885113806
H            3.02547406905340        1.94074488106306        0.64524930234450
H            1.86642311998442        3.19360012901214        0.67046099107941
H            4.72687457245312        0.07651555369085       -1.06466980247261
H            3.62968636166168        1.33261622331716       -1.26317982177174
H            4.06605160527505       -2.18184181109731       -0.27332075919974
H            1.77928434240150       -3.29205530710754        0.48122453234681
H           -0.46861886082686       -2.72983139939748        0.66597942085949
H           -2.80269919931791       -2.96271688325376        0.13422378061463
H           -4.14583295599442        0.80044872449599       -0.79404380076150
