27
 energy: -52.516375895142 gnorm: 0.000777529437 xtb: 6.6.1 (8d0f1dd)
N            5.68169426733074        0.58965026577576        0.00048259489534
C            4.67581497700659        0.03411516522864       -0.00181561730541
C            3.44384170983977       -0.62166007352331       -0.00097852096868
C            3.22948842176439       -2.01645543283944       -0.00117890493338
N            1.95023855853630       -2.32777888904167       -0.00109156204909
C            1.23433413538261       -1.18165419394885       -0.00067061289942
N           -0.05656305799828       -1.31757877571813       -0.00060736564536
C           -1.09669585232301       -0.53880403717392       -0.00018106416716
C           -2.37794529341128       -1.13668488950740       -0.00060537884159
C           -2.66915807576771       -2.50324603192665       -0.00240637577957
N           -3.00791683237295       -3.60091310837355        0.00090742445919
C           -3.37366742153841       -0.12550319579555        0.00006064205397
N           -4.69497594757131       -0.33675782511341        0.00001601160517
C           -2.71935328185252        1.11762029763833        0.00045081354525
C           -1.33614523474644        0.94126707222979        0.00026266378369
C           -0.46519023172758        2.04288422564978        0.00051182925977
C           -1.13446809759899        3.30209645414647        0.00010918000858
N           -1.64343345293261        4.32904627459472        0.00189716261382
C            0.92265957856183        2.21591896596147        0.00026421398328
C            2.01358004814848        1.36394302417464       -0.00013865432787
C            2.16656966617028       -0.01519111777675       -0.00042073835770
H            3.98678126702753       -2.77992665893250       -0.00159222949810
H           -5.05331021291157       -1.27681607696901       -0.00025613097647
H           -5.33687113223803        0.43626983339936        0.00040559752664
H           -3.22483365928756        2.06638053816269        0.00072591009221
H            1.20374774084990        3.26499623934033        0.00042835825889
H            2.96554531785991        1.88876806303817       -0.00026108293593
