29
 energy: -45.561875579800 gnorm: 0.000804215689 xtb: 6.6.1 (8d0f1dd)
N           -3.58095957264252        1.62855543020903        0.76248046006409
C           -2.73294238964417        0.64000401720002        0.34627358604439
C           -3.11865931693909       -0.64804126173908        0.00759843891069
C           -1.98038514622679       -1.39028038757141       -0.32045743416144
N           -2.03106913644061       -2.72792377468894       -0.68715381001796
C           -0.81962552660386       -0.58400643858994       -0.17600839940299
C            0.46928671529858       -1.10673485818323        0.02417545540221
N            0.57102570800343       -2.46915878240239        0.02217627902673
C            1.70977266825095       -0.42909010582157        0.23599725290561
C            2.84449365261421       -1.07607440712502        0.76480078389765
C            3.97127121163372       -0.28150983791881        0.57514488432814
C            3.58902933425494        0.84853761250877       -0.12563710177439
C            2.19264337556980        0.82071191802067       -0.30232947413155
C            1.49763702280608        1.89156027467974       -0.88297541207973
N            0.35390543236703        2.38453209346990       -0.54898768733582
C           -0.68377038213515        1.97834134625819        0.14411987426178
C           -1.31863335846159        0.75622363720372        0.15780138337801
H           -3.25236075959386        2.57808265093207        0.71473847618473
H           -4.55598664175989        1.50338579247070        0.54464834189869
H           -4.12711683251136       -1.02196150296078       -0.00348841980629
H           -1.38376064052422       -2.98542232032764       -1.42008461249951
H           -2.97253989294221       -3.04385012029874       -0.87841589188526
H            1.46829988695580       -2.85409505500750        0.26370985678299
H           -0.24200038079530       -3.00626049462054        0.28061342785372
H            2.86247583032507       -2.01655127303308        1.29141406988072
H            4.96652273367529       -0.51747026717697        0.90709687600621
H            4.22583643642892        1.66144431815667       -0.42543762341949
H            2.04551428519773        2.50911456126851       -1.59372584575847
H           -1.20847212126320        2.81537309018732        0.60444776934776
