33
 energy: -52.448999523218 gnorm: 0.000479460265 xtb: 6.6.1 (8d0f1dd)
N           -4.09467140188362        1.79313043107247       -0.46634709634768
C           -3.28595581530687        0.71042825229315       -0.23166146401034
C           -3.74500562278257       -0.55489469334648        0.11908578835873
C           -2.64102139907895       -1.36894153410159        0.37089135968991
N           -2.71994248475308       -2.71027152447204        0.66645274677356
C           -1.44132744617652       -0.62141668535631        0.18903949642919
C           -0.20951745624845       -1.25772607215830        0.10578946078539
C            1.09763374856712       -0.84828260880076       -0.09499308294573
C            2.14539584780296       -1.81084840961497       -0.27402284556359
N            1.97576841804847       -3.17794437440797       -0.37091184754563
C            3.36893828859316       -1.16492922954929       -0.28227300581055
C            3.14635478523075        0.20388290622691       -0.07982815363114
N            4.15435493687383        1.14415762804967       -0.00191502122820
C            1.75780899387955        0.44267950860993        0.01618298227984
C            1.19653191783423        1.70314297682503        0.30867143877400
N            2.01556442606291        2.62452015032207        0.94079141151281
N            0.07631415761965        2.24145424894630       -0.10219097489469
C           -1.11922925016148        1.86074073720342       -0.45286512925462
C           -1.85986338888178        0.72835833363732       -0.16217969197180
H           -5.04613161868490        1.57908457232378       -0.71920529596736
H           -3.68645623644564        2.56220975580636       -0.97321995558698
H           -4.77563938337037       -0.85642513888122        0.18082062967975
H           -1.94823320676431       -3.09941182017614        1.18486035492335
H           -3.62447048034808       -3.02346180172518        0.98170462754151
H           -0.29708629682775       -2.33812848357665        0.18395788958752
H            2.78172328309616       -3.66937677501214       -0.72606701132207
H            1.10846611585438       -3.48491972221853       -0.78385050274344
H            4.33087662528823       -1.62733244242077       -0.41622134902080
H            5.02152073904389        0.85139985736670       -0.42818016651371
H            3.87529099868851        2.08318109350665       -0.24927105165618
H            2.69018541544395        2.25133320045831        1.58956113005713
H            1.53623683013992        3.46128742870044        1.23758703853543
H           -1.65739737605341        2.67059057446992       -0.95105174251343
