22
 energy: -45.095112213259 gnorm: 0.000868441124 xtb: 6.6.1 (8d0f1dd)
N            5.35021782786793       -0.28657644597717       -0.12170340761194
C            4.28536891358646        0.13275429803999       -0.02589753127817
C            2.98164510427366        0.61860478775382        0.09593823618316
C            2.58507341094564        1.91384474448538        0.47858025697113
N            1.26970646111184        2.05937591638139        0.49332927403940
C            0.72316055475798        0.89894327279321        0.09398541475360
N           -0.56558037725387        0.84817271647388       -0.08673800574827
C           -1.54389888810634        0.05914876717389       -0.11046600178211
C           -2.94049872012200        0.26248272211828       -0.18349013433410
C           -3.60686529824370        1.29948362222912       -0.83965625515184
N           -4.16923305615772        2.13887795196788       -1.38373372122458
C           -3.50828810269067       -0.76144243926579        0.59793678442060
N           -2.64292839855810       -1.66607798801458        1.04112097646857
C           -1.46814449319836       -1.40641963563559        0.47328253309035
N           -0.55368846913495       -2.20340914753228        0.14374494716976
C            0.62564606781879       -2.31927487501094       -0.40914524845753
C            1.73048071465169       -1.48100088563826       -0.34995532825243
C            1.79135080561673       -0.11320450864416       -0.12365621228320
H            3.23034572540978        2.73074973900689        0.74621355335630
H           -4.54743177148449       -0.84041810404168        0.86568981251460
H            0.76556301993133       -3.28621317870661       -0.88448947647493
H            2.68856860437899       -1.95591982915476       -0.53204803286992
