23
 energy: -39.221297415544 gnorm: 0.000672244403 xtb: 6.6.1 (8d0f1dd)
N           -4.49942183600074        0.88202679903547        0.03771485275754
C           -3.21005499600600        0.48458750124989        0.00589122254407
C           -2.74930414649386       -0.83639260717734       -0.00656771835780
C           -1.34789167110991       -0.85881881896826       -0.00114913391886
C           -0.65456308664287       -2.05292886868441        0.00212288827834
C            0.70396505172348       -2.41022430879773        0.00801785713120
N            1.84314033969792       -1.78197612448111       -0.00165958541158
C            2.18850972967681       -0.50882229128526       -0.00361438915228
C            3.54002086176341       -0.15447827725311       -0.02075343348422
C            3.59390718622590        1.24202666056738       -0.01392571838433
N            2.39907868265605        1.81225456808553        0.00174682966939
C            1.47073071188055        0.82700378432867        0.00708232830780
N            0.23202157765132        1.20822791838942        0.01261906268623
C           -0.92087144504753        0.58410892068742        0.01173745659791
C           -2.08903604430986        1.33954683729986        0.01864928865440
H           -4.72060926817036        1.85627143751865       -0.06428563598960
H           -5.23539851715634        0.21000072235616       -0.08574710886165
H           -3.37594035158221       -1.71051077473875       -0.01811714288657
H           -1.30779491921122       -2.92111370178232        0.00165792748820
H            0.86090539047104       -3.48977156099153        0.01701010831752
H            4.36724922336658       -0.83646266840494       -0.03226259629497
H            4.48017821213032        1.85364362088225       -0.01879845029410
H           -2.11000205211257        2.41215414326428        0.03051044680285
