25
 energy: -48.263214090536 gnorm: 0.000949080052 xtb: 6.6.1 (8d0f1dd)
N            4.32085543734745       -0.49776032721738       -1.30135352052554
C            3.32819908517766       -0.75712117113417       -0.78389914029391
C            2.13431916374043       -1.15820549242105       -0.18284395552783
C            1.90392988869439       -2.44072132197666        0.36940983078236
N            0.67470103323132       -2.60301913885133        0.80254968612117
C           -0.02480757074288       -1.47744896150813        0.51786740733315
N           -1.31114027834551       -1.54280004805602        0.58421993057245
C           -2.30496979867198       -0.78050489680686        0.22173195429407
C           -3.57193153746265       -1.29745158348720       -0.03445223627704
C           -4.36769150591561       -0.30107135583764       -0.62523251937131
C           -3.64690886168111        0.86995108610195       -0.75391349001118
C           -2.35932484162995        0.67672937588027       -0.20461013053318
N           -1.50652561314774        1.63362827991340       -0.07253158730891
C           -0.26503296181776        1.80703078556467        0.30132623080858
N           -0.00115663963407        3.01325155438408        0.85611899667205
C            0.85350290383144        0.94973836763228        0.01436181912693
C            2.06297236459827        1.66450227368542       -0.15209345610334
N            3.00123209862434        2.31982176876424       -0.24858898223843
C            0.92929542906289       -0.43913489153907       -0.01771198964249
H            2.62604878573590       -3.23418665894607        0.44268189639370
H           -3.86417154302298       -2.31090633644010        0.16177548880006
H           -5.39148265814436       -0.43526697828418       -0.92552174028237
H           -4.00273807998574        1.80716918866114       -1.13725346821790
H            0.94803344670628        3.32550487678992        0.97500314887663
H           -0.74846739134915        3.68392584672776        0.91252598305287
