26
 energy: -52.794331584222 gnorm: 0.000526840039 xtb: 6.6.1 (8d0f1dd)
N           -2.17424780216551       -3.54262019370905        0.44423372295929
C           -1.39752500295803       -2.70911193239394        0.31815144006771
C           -0.35939320710806       -1.74330313101578        0.25388166512187
C            0.90661278212311       -2.32528318707987        0.54154598954731
N            2.07316436254004       -1.98868927595223        0.13033687856369
C            2.73565388000597       -0.94009778061871       -0.22272237166438
N            3.94332176573903       -0.99399949526471       -0.80508588286315
C            4.44992384786517        0.22317886196546       -0.63809615760913
N            3.67934405227259        1.11829146760017       -0.01567765785058
C            2.51728952556623        0.48708095404468        0.19390630779003
C            1.35281246091228        1.18204511873331        0.44854030318021
C            0.01048514575415        0.84431468085079        0.29487272349688
C           -0.95293388401846        1.87064730699802        0.26361059871234
C           -0.73647081597429        3.23052708327184        0.50238499388133
N           -0.61416907956277        4.35677910342162        0.69355007593817
C           -2.21804226441533        1.33937650650291       -0.11368872690888
N           -3.34306090502671        2.03381567385906       -0.28719305156090
C           -2.05924402699653       -0.05538163395734       -0.27446156901122
C           -3.12258055204323       -0.85720542043628       -0.70493671956284
N           -4.05955494890444       -1.38584627728546       -1.10780045827069
C           -0.72397558931233       -0.41952762088027        0.02295205957551
H            0.87714528394645       -3.28551264424080        1.05209097633563
H            5.43633134015114        0.47404541235300       -0.98263292271434
H            1.52521807056249        2.24507754206435        0.59314376317842
H           -3.35559169740844        3.02987400461365       -0.14366715301473
H           -4.18453324374348        1.56323222575341       -0.57830633201722
