35
 energy: -55.880208011913 gnorm: 0.000411102558 xtb: 6.6.1 (8d0f1dd)
N            2.02788795282335       -3.20997570268315       -0.61539341439187
C            1.20921270721133       -2.15285920589273       -0.31022902774331
C           -0.14257801297072       -2.41470136140200       -0.50454144357663
C           -1.34057929864923       -1.76474190150202       -0.20534446755443
N           -2.43554896362092       -2.59609846878558       -0.19116789522016
C           -1.60907710064801       -0.40586485823451        0.06843397236707
C           -2.88961111085367        0.07250343711227        0.43413696392436
N           -3.99706176899039       -0.65673326618202        0.85827195730325
N           -2.99929185846346        1.40129727666670        0.32915655173088
C           -1.82647656404457        1.83989808272915       -0.14017931672184
N           -1.66650839876516        3.20443601023298       -0.35244628166841
C           -0.87733612838918        0.79852754425716       -0.29290688644076
C            0.47206659609429        1.06894378269890       -0.58554428297883
N            0.71943791873431        2.24744597070592       -1.22795291234541
C            1.61467763374618        0.40085647681393       -0.08049786245651
C            2.77311778027426        1.11265169210030        0.32261125795190
N            2.97976176888136        2.49730710317541        0.27928435227884
C            3.70156102244063        0.20902137138542        0.83914231152795
C            3.18848229799284       -1.06602314102097        0.69293172108080
C            1.89184086939101       -0.99556935963594        0.14331147573590
H            1.64239365465119       -4.13749500318540       -0.66332215294592
H            3.00670278548509       -3.12683538042024       -0.40758738233389
H           -0.30918382030671       -3.43367630117404       -0.85181490006574
H           -2.31687014877271       -3.51643790605701       -0.58156374840919
H           -3.34062402508242       -2.16904378527455       -0.31787553528312
H           -4.72869629382483       -0.02302027349777        1.15603784889167
H           -3.78195656273328       -1.34367469031914        1.57009915300723
H           -2.46575311959453        3.69967500285150        0.02348507097049
H           -0.79450336083163        3.57835231877213        0.00037001981852
H           -0.03824727862260        2.67264816785781       -1.73622214861003
H            1.65929846751484        2.40656989743098       -1.55119541086751
H            2.14586680125113        3.03952035380962        0.46706923912805
H            3.73776028229582        2.77482236426992        0.88996888552770
H            4.65153710905672        0.47091887986116        1.27059472614819
H            3.68896470971661       -1.95717496266402        1.03294797072029
