26
 energy: -52.010304269068 gnorm: 0.000681957638 xtb: 6.6.1 (8d0f1dd)
N           -2.85917589332410       -3.10074125992994       -0.34585038670912
C           -2.02321634889754       -2.32444023395765       -0.23282901740272
C           -0.92323076830349       -1.43461600586197       -0.14434653878606
C            0.32251903874431       -2.08516076447874       -0.13960253418116
N            1.47313721482455       -1.70010450933198        0.32559315343750
C            2.27023705945015       -0.72231894554499        0.39128085911662
N            3.49240476074615       -0.64635774764099        0.88890441132198
C            4.10336625679687        0.29794345605223        0.13519326967102
N            5.39777861815457        0.55782118076245        0.27674965381806
N            3.34541109914472        0.96568128574803       -0.76018711158641
C            2.11004347873260        0.54693255607235       -0.52965885585081
N            1.01574348585970        1.15786617876989       -0.69308842761199
C           -0.25578071033706        1.08261334774251       -0.35807308972434
C           -0.99001738962507        2.25040553145953       -0.18413359295227
C           -2.33149835094742        1.92648474665365        0.06614546239817
N           -3.34421406090263        2.77940232014526        0.26983850732233
C           -2.45665432728913        0.50589326016966        0.07495149074883
C           -3.67407811266143       -0.11615692198564        0.35643263126954
N           -4.72545760767401       -0.50331011594370        0.61635174872431
C           -1.19494500615996       -0.06328581477345       -0.15637879810490
H            0.32126056586791       -3.12579650945124       -0.45716834131723
H            5.83326981691153        1.22887294479892       -0.33025044790986
H            5.92348986333109        0.06093027421558        0.97327329410420
H           -0.58523209032258        3.24045324987340       -0.26364696638113
H           -4.27415627423488        2.42425201112219        0.41610882494688
H           -3.18392990758940        3.77051601760761        0.28945494892829
