30
 energy: -45.279819314925 gnorm: 0.000428310243 xtb: 6.6.1 (8d0f1dd)
N           -1.45876640541591       -3.25953356253235        0.09025112696546
C           -1.64083678226246       -1.90045001507062        0.03419603104171
C           -2.86238583414776       -1.29459941056315       -0.20478174700484
C           -2.67561327903676        0.08830937431742       -0.24302469183194
N           -3.72201093964319        0.97101310965009       -0.47807907981460
C           -1.30809269314956        0.40028760049694       -0.01966484295189
C           -0.86670128803626        1.71470674338891        0.20178669651738
N           -1.86294003886017        2.63695584959544        0.44764687704661
C            0.40969320348614        2.32070018977065        0.12440597278936
C            1.70568979665620        1.91413068316386       -0.05494861180826
C            2.37867111942601        0.69188049332406       -0.08000252684023
C            3.78334218311889        0.65946825606804       -0.19526771514642
C            4.22731189672835       -0.65365482208316       -0.11763069469690
C            3.11766064651319       -1.46916444767828        0.04799140549540
C            1.94685130297425       -0.67994591794331        0.06677589084239
C            0.69859996133095       -1.29160926388449        0.15818533993294
C           -0.61634243555697       -0.89637892618982        0.08448683026245
H           -0.64962552329453       -3.59991360169705        0.58432394633727
H           -2.29611949248278       -3.79781869592319        0.24350047609818
H           -3.80183452227201       -1.79892545040418       -0.34670306490193
H           -4.53629145892076        0.50702329717347       -0.85820138296941
H           -3.46496191912697        1.79061062738315       -1.01152076017569
H           -2.72214223736823        2.29389909464332        0.84527473743471
H           -1.56836117448946        3.54641431200377        0.76438004833080
H            0.32567710394341        3.40241615017000        0.20874217809022
H            2.39610202470644        2.74969744489691       -0.14522937221338
H            4.40667018722518        1.52869462421592       -0.31615197439645
H            5.25056863333681       -0.98046662225553       -0.17372596798627
H            3.13405981722619       -2.54222753598054        0.13660820611767
H            0.80927462389178       -2.37055449035592        0.23643936273594
