29
 energy: -45.560189851804 gnorm: 0.000386746409 xtb: 6.6.1 (8d0f1dd)
N           -2.86182815570041       -1.89565930587460       -0.89620411182779
C           -1.78329128291263       -1.26126024336521       -0.36146930442026
C           -0.67638249960706       -2.06539903396939       -0.13852557456822
C            0.67053272658584       -1.90109431255752        0.21685900844619
N            1.26375811943608       -3.07903427883796        0.59412811111279
C            1.55396293409167       -0.80682676282173        0.06985243704129
C            2.94473305116867       -0.99325386620460        0.03302762674227
C            3.59725117248053        0.21564191141062       -0.17952461955757
C            2.64176212868339        1.21813146778746       -0.24599303246546
N            2.91690108224960        2.55269505977685       -0.38893478347373
C            1.33784263236426        0.63084390736499       -0.08735219350903
C            0.23400587304370        1.44203014058933        0.03186652736020
C           -1.13268475781761        1.22701721312069        0.16734507454718
C           -2.00512623639879        2.30177316766064        0.47007092184764
N           -3.27140269022172        1.92845543448425        0.54409704746186
C           -3.28886364237762        0.61992813500249        0.23837277867862
C           -2.01415279432514        0.09820268745487       -0.00245492521153
H           -2.84893016252851       -2.88874234156152       -1.04536693296594
H           -3.73020589346500       -1.40399695982798       -0.99505972054232
H           -0.92181104279060       -3.12084848780252       -0.25302285290452
H            0.67590494961399       -3.86564254741279        0.80692291468677
H            2.15877548293327       -3.04834686429533        1.04527431366000
H            3.46470727011224       -1.93391662465135        0.07669027862505
H            4.65898319063258        0.34926489700585       -0.28155876969802
H            3.84631560491131        2.77522576920708       -0.70577223603545
H            2.19158745497444        3.14554681873915       -0.75711737859054
H            0.47219512336351        2.50274973902936        0.06189816977743
H           -1.71784910827678        3.32108957090374        0.66169725040557
H           -4.23111469452346        0.09787904034492        0.26789007527799
