22
 energy: -39.519076106263 gnorm: 0.000611802373 xtb: 6.6.1 (8d0f1dd)
N            4.46426802095142        0.73175572130024       -0.27119742459282
C            3.16325599495311        0.44407282627976       -0.13389864945997
C            2.13016121433834        1.35907668123590        0.22710263588351
C            0.94904736688328        0.64620488782506        0.24622037676228
C           -0.29181691947977        1.27554210730256        0.44252034254328
C           -1.57945561851902        0.84738398701790        0.27354825681177
N           -2.59563955071129        1.74081838981172        0.17293034356165
C           -3.58533159817058        1.06424478180312       -0.37915846613925
N           -3.38503167326186       -0.24335758386608       -0.59347159235410
C           -2.15354902024738       -0.47772211654097       -0.13455328758057
N           -1.72893922867772       -1.68371838787880        0.10528372689967
C           -0.62007616010116       -2.29911768780511        0.30214323518872
C            0.71069484303462       -1.96020091940116       -0.02587504552487
C            1.35740553814241       -0.75203274521467       -0.08495128291187
N            2.69133047302919       -0.78316939614044       -0.32499251337098
H            5.09344074330923        0.00168433106990       -0.55361629546287
H            4.80416031454114        1.66655074057813       -0.14043991853823
H            2.25903981600028        2.40582004642640        0.42410954356405
H           -0.21871813506084        2.34834810010658        0.59383297004233
H           -4.51830857449710        1.53266980870626       -0.63621634866220
H           -0.75707522172294       -3.30611351669984        0.69336404642586
H            1.37606490126655       -2.80275092101655       -0.17350934448542
