29
 energy: -55.171310688783 gnorm: 0.000897996011 xtb: 6.6.1 (8d0f1dd)
N           -2.84467845676039       -2.69121142801317       -0.91897534613038
C           -1.99217020453064       -2.01995544044987       -0.53815806270173
C           -0.86519543425866       -1.24686287613230       -0.16080710080813
C            0.27859960346959       -2.02480400774917        0.11943652908744
N            0.08435135851303       -3.37258734818739        0.15131618216692
C            1.61551150267577       -1.65569503540584        0.39676130987788
C            2.37048863125321       -0.52355923540176        0.26622195250057
N            3.71279770094152       -0.66924578560764        0.38784369683413
C            4.27270938259272        0.46792500795102       -0.02483884786589
N            5.60377544392247        0.61209898273801       -0.07828493793413
C            3.30802465496074        1.45057644139291       -0.38169318433268
C            2.06974983224242        0.88639293929777       -0.14602378342216
N            0.96415657615917        1.59998654353507       -0.16970468677633
C           -0.29244624287491        1.37376389229992       -0.02083531583800
N           -1.08146722609363        2.46788690670321        0.10540349660935
C           -2.33608995563351        2.06800371363757        0.11707268762296
N           -3.37178219967242        2.89955193357078        0.24737860611366
C           -2.44948821026785        0.63158802530210       -0.02244963648561
C           -3.70120106404680        0.02304314002337        0.01298583394563
N           -4.79446347287047       -0.32870618341140        0.09284371774002
C           -1.15105754374833        0.13320160954792       -0.06967570664272
H            0.86887279238021       -3.98861619898027        0.26284429859692
H           -0.81142559845516       -3.76784679373138       -0.08072309977351
H            2.24129639575208       -2.50754304017150        0.64789814665882
H            6.18543485104530       -0.12963386601475        0.26835414497645
H            6.01404143832637        1.48220863304992       -0.36296933460557
H            3.50207044560274        2.45089858027108       -0.71109183557897
H           -4.31134212754675        2.54224035654994        0.24291705264407
H           -3.19694391267996        3.88289532148435        0.35528303462167
