33
 energy: -52.443348768791 gnorm: 0.000831424201 xtb: 6.6.1 (8d0f1dd)
N           -3.52095805142233        2.38479478969053       -0.68566565081579
C           -2.94582096505607        1.18895631953494       -0.33285162775952
C           -3.63703102652616        0.00311092346548       -0.17954069599978
C           -2.72441113179904       -1.01571314512911        0.12595799640052
N           -3.11528088119584       -2.33956918981178        0.26881818765348
C           -1.41438155000172       -0.48065624691496        0.19575205481918
C           -0.26847073206625       -1.28490686204017        0.34093266259976
N           -0.49141131100930       -2.55678869674597        0.82732440186326
C            1.06272385252937       -1.05371380584269       -0.09242371474610
C            1.89101939040704       -2.12518908640431       -0.49612118650011
C            3.15502866043284       -1.65228606684840       -0.79387138508277
C            3.18882508372057       -0.28731630361898       -0.49331155254640
N            4.32506135385974        0.51929914040019       -0.57535188818121
C            1.90174053047890        0.11837447963412       -0.08552144577464
C            1.62010762183212        1.39179011316996        0.48348126621368
N            2.64223226261830        2.00738874636855        1.14858696683508
N            0.57091274239457        2.14757808124855        0.31851343752996
C           -0.64340701815749        1.98065145935208       -0.14687742799124
C           -1.54951972991194        0.94377514635679       -0.11076420303987
H           -4.51212620573774        2.45230475111713       -0.51867039418082
H           -3.00554179866077        3.22346991340390       -0.47545473261691
H           -4.69733680611999       -0.13278888988888       -0.30122679641075
H           -2.46181843905229       -3.00805944934240       -0.11937736962274
H           -4.05875141009532       -2.49375687475835       -0.06274867211823
H           -1.27895004333248       -2.66677572091372        1.44375141577214
H            0.33421331049565       -3.07607926333820        1.07517834484931
H            1.56739644834868       -3.14004116218212       -0.65114193344375
H            3.97783006314640       -2.22842802376059       -1.17824075749976
H            4.11842286294811        1.49220752079390       -0.75922158350405
H            5.01382140405634        0.15367031203999       -1.21915412856174
H            3.42407879640574        1.45466227477243        1.45217825983372
H            2.43180646549996        2.86586092888099        1.62826057211744
H           -1.03545182442995        2.92320568671030       -0.53239359299147
