23
 energy: -44.037891809199 gnorm: 0.000784358818 xtb: 6.6.1 (8d0f1dd)
N           -4.14064345816286       -1.87654495011940       -0.78414505787156
C           -3.43067963773856       -1.03462667218966       -0.45622680987133
C           -2.56886950588777       -0.01050382920784       -0.06336662418357
C           -2.92822374581314        1.20146699863907        0.55744974174182
N           -1.89489972462280        1.99097103328392        0.80073184748155
C           -0.79355674758069        1.36949096457667        0.33437948099353
N            0.29309942148610        2.05085399565286        0.19394793444498
C            1.55718661921574        1.90631293087265       -0.08503583651670
N            2.15698251877837        2.99831662491762       -0.60668923126491
C            2.39843988681298        0.80730593525898        0.25419059701525
C            2.12845702973937       -0.53234196589607        0.28130650562175
N            3.15268659855223       -1.39596404162909        0.52798617269559
C            2.67049141361706       -2.58896181634445        0.25507666924902
N            1.38991557897839       -2.63482975654987       -0.14506214314809
C            0.96403177671337       -1.36969887021236       -0.12471449495117
C           -0.38705749894690       -1.12263934792374       -0.36752243696401
C           -1.15512340601139       -0.00409715823077       -0.14761357679967
H           -3.92371275536600        1.50855684369587        0.82559194103390
H            3.15293646609184        3.03378845271335       -0.73228162742028
H            1.60575059621357        3.82685611832890       -0.75319270693040
H            3.43068976473639        1.05344383155056        0.47476174627370
H            3.26259133734683       -3.48131053468535        0.34325608642399
H           -0.93304255725295       -2.02595632320367       -0.62484119355337
