23
 energy: -39.240005339719 gnorm: 0.000275160309 xtb: 6.6.1 (8d0f1dd)
N           -4.33250368702143       -0.71856478764317        0.62515743198899
C           -3.06610351173211       -0.43716071375851        0.27016595458166
C           -2.12436578412025       -1.34933091393627       -0.28023945823277
C           -0.93222192559692       -0.65636208006203       -0.40647430824795
C            0.30804062142966       -1.27262268841153       -0.61635224828153
C            1.59129188250895       -0.85401480964776       -0.35968035621911
C            2.66584749388924       -1.74892611703017       -0.20509384308321
C            3.70636193273426       -1.10355690352674        0.45212806948923
C            3.36864470115236        0.22690245449803        0.68523714430118
C            2.10840440781133        0.47766770218829        0.12567622811648
N            1.68280571712359        1.68023957591940       -0.13865228047794
C            0.55533897034902        2.18016172436878       -0.55636224388613
N           -0.67305136409338        1.85880297275736       -0.25424781953617
C           -1.28797807383436        0.74585117455986       -0.00441800224282
N           -2.55166642586062        0.77959522627230        0.45397040945539
H           -4.90879933252878        0.04765650172194        0.92767364570771
H           -4.77095705333066       -1.56328299861013        0.30504421625491
H           -2.30542257033269       -2.38439766838697       -0.49923093096239
H            0.22396566809100       -2.33585007510223       -0.82796092899666
H            2.65121759612341       -2.78229894911182       -0.49974896279301
H            4.63755433536437       -1.56257181325690        0.73477183024108
H            3.98758591825511        0.97288757296749        1.14448189209866
H            0.65111170932038        3.13684166413191       -1.06739530817574
