19
 energy: -41.131224266945 gnorm: 0.000636529729 xtb: 6.6.1 (8d0f1dd)
N           -4.21094042902416        0.81740812013736       -1.72950876091856
C           -3.40909624643887        0.29655641951181       -1.09460008070310
C           -2.43040393869937       -0.34220926861954       -0.33013016274326
C           -2.52396599638051       -1.60627383659146        0.30291327169855
N           -1.42909081155216       -1.99825721612800        0.93489593818758
C           -0.49217202501196       -1.08160312772058        0.69416074867786
N            0.75737226732068       -1.24247913676753        0.58340799196528
C            1.81918069381821       -0.61643900830670        0.17622040435329
N            2.80979296834236       -1.24524311195070       -0.42932182176589
C            3.72049324452170       -0.30314115803592       -0.73382049530050
N            3.38491472865656        0.94455720425638       -0.48708336574494
C            2.17613909878147        0.89918870356966        0.08164280413414
N            1.46229571810004        1.93694586357194        0.33319223352594
C            0.22411494928206        2.05168416121550        0.74553918491459
N           -0.81392990535326        1.36913186415926        0.36231161056490
C           -1.20406769904784        0.19081900024301        0.10153441718403
H           -3.40055156728377       -2.23067316710112        0.31219462588508
H            4.67109761079266       -0.56824393154485       -1.15898304230247
H            0.00316391047559        2.94053229130174        1.32865998178896
