32
 energy: -52.726808284614 gnorm: 0.000454067497 xtb: 6.6.1 (8d0f1dd)
N            4.05032442082735        1.71364493692257        0.74477879797317
C            3.20092857930011        0.73891708165005        0.29354959343558
C            3.60566279184739       -0.50165620466801       -0.17762028774788
C            2.47014270211773       -1.24425765049429       -0.50604052672864
N            2.53484944045641       -2.54124272412224       -0.99561631791250
C            1.29782752724575       -0.48438955917538       -0.23327122258633
C            0.02499474782529       -1.06780089375676       -0.06764719690845
N           -0.02853218691026       -2.42839216531643       -0.16263150048692
C           -1.22895183777469       -0.43887630911288        0.15486373735899
C           -2.40901535589786       -1.13586338626128        0.50104235825353
N           -2.53770754102132       -2.42543919458514        1.01382673525839
N           -3.53185284262073       -0.42486673946995        0.29512529848480
C           -3.14164037172178        0.74650322783768       -0.21281119160382
N           -4.06467980604102        1.68210949808511       -0.57029489330272
C           -1.72267041887364        0.85733076740418       -0.28161689339275
C           -1.07689340148786        2.04472969214419       -0.59597335400689
N            0.04242252197447        2.53535209599748       -0.14458957554635
C            1.12282751413500        2.03097689755441        0.39354990112313
C            1.77473637762012        0.82327529299566        0.20365119221068
H            5.01066673231149        1.63188574670919        0.45279880663199
H            3.69802160030661        2.65539519092388        0.78105673536052
H            4.62208642105878       -0.83783443443768       -0.28212300154828
H            1.84206337734580       -2.75497391916510       -1.70076685092784
H            3.46916501081548       -2.80213052401939       -1.28098963480565
H            0.79863774711381       -2.96077535942645        0.04870239610552
H           -0.92596047363064       -2.86799060170354       -0.03518810673287
H           -1.93423496829938       -2.61048388574127        1.80609004277301
H           -3.50871723983034       -2.60265010362609        1.24102584486029
H           -4.99055682398757        1.52637319952556       -0.20709249705398
H           -3.76468254157982        2.63938332298924       -0.63256784733129
H           -1.64520835893694        2.77496513728701       -1.17245294087702
H            1.67783032171202        2.79287700995532        0.94269304227064
