31
 energy: -53.827716539047 gnorm: 0.000759710523 xtb: 6.6.1 (8d0f1dd)
N           -5.42863558465566        0.80967902291515       -0.40616101494453
C           -4.30244895645346        0.61384565427422       -0.26070655856223
C           -2.94271994578949        0.36909399058665       -0.10650174736403
C           -1.92817045650573        1.32994537067140       -0.03461199653929
N           -2.14801981936644        2.66851186566129       -0.02181515088599
C           -0.65959752988504        0.66440599453785        0.06178464390989
C            0.49951901746081        1.38510487063906        0.25539234165294
C            1.85693881789126        1.06208358378217        0.25550226018898
C            2.84214898655682        2.05721430022636        0.39853265842681
N            4.08047717819179        1.62495652919414        0.16621457146999
C            3.96137790782439        0.33058898240122       -0.17267576663909
N            5.05857068709398       -0.38921026761571       -0.49890429414493
C            2.60594287029860       -0.11706967748123       -0.13559271152056
C            2.19872510111637       -1.39097739754060       -0.49649655295760
N            1.13844535192189       -2.06582822379298       -0.16932444457291
C           -0.06544869336231       -1.85427547938086        0.29392371227571
N           -0.59496957751408       -2.96148888319051        0.91430609101488
C           -0.94913014259109       -0.76781879811704        0.06560234147193
C           -2.34092301649583       -0.91729308849461       -0.01850971907006
N           -3.06478224139380       -2.07727650119989       -0.02085256747622
H           -3.07429832441008        2.98743659601010       -0.25232509764873
H           -1.38852255680708        3.29567901642799       -0.22169321069441
H            0.34072709290845        2.44904923544284        0.40943451393780
H            2.67418541791359        3.08849446249977        0.65649150425282
H            5.01002088049396       -1.39111093859956       -0.53718349413971
H            5.94806938013704        0.03870988725445       -0.30864044002944
H            2.91640571957980       -1.99371936518147       -1.05412168466362
H           -1.36007042500898       -2.82094995210871        1.55252316461953
H            0.07100732997640       -3.67933941249294        1.15362231344328
H           -4.01285613124904       -1.99242785447091       -0.35669029000260
H           -2.57763471627677       -2.91255614895727       -0.30769644650879
