29
 energy: -55.958664242702 gnorm: 0.000846789132 xtb: 6.6.1 (8d0f1dd)
N           -5.59206646362600        0.00602485755644       -0.00504494198351
C           -4.56363813615940        0.52063017644218        0.00172475996053
C           -3.29540075132570        1.09732340378760        0.01398492493672
C           -2.97479857420966        2.46091092644577        0.04888551305371
N           -1.66827188673827        2.67684175249092        0.04904815109217
C           -1.04458624389099        1.48616118554850        0.01919106250926
N            0.25378023696218        1.50682196843336        0.00209684616756
C            1.21388892843164        0.63408516878955       -0.00683044052657
C            2.54115021667892        1.11611138869851       -0.02349996271420
C            2.95245923596804        2.44972435073035       -0.05145042463909
N            3.38751841210009        3.51305774200723       -0.07363829547790
C            3.44303305858600        0.02041588498997        0.00056524018389
N            4.77767459812229        0.11742037182019       -0.00506693648267
C            2.68478123426162       -1.15830265310565        0.02982143657862
C            1.31897180972597       -0.86912679828254        0.01790404398710
C            0.37357596277877       -1.90896571581031        0.01868230830487
C            0.99103471725073       -3.18924551931384        0.06580586537122
N            1.47205514836489       -4.23142872282168        0.11234399125672
C           -1.04305165009160       -1.98913216192597       -0.02764080700531
N           -1.56417504654179       -3.24786304000432       -0.07537776569800
C           -2.02798153628191       -0.98346178925319       -0.03266894315537
C           -2.05880081834142        0.38876643582465       -0.00106591599614
H           -3.66845873333559        3.28248159538342        0.07275494555881
H            5.35106147912684       -0.70723918094709        0.01952182778863
H            5.21484807261748        1.02314028342976       -0.02704595856287
H            3.11501812067954       -2.14260783418754        0.05122154280257
H           -2.55956163119426       -3.38097332639276       -0.06539528642209
H           -0.97279281701589       -4.06001307594954       -0.04362179178336
H           -3.03020226120280       -1.40964001738393       -0.05733446450535
