25
 energy: -38.684205291718 gnorm: 0.000368374730 xtb: 6.6.1 (8d0f1dd)
N            4.56904799291399        0.85586521683365        0.07017648097707
C            3.26312353192558        0.46969907017778        0.01463047795833
C            2.78588942130409       -0.84123084610108        0.01244806015060
C            1.37965953765750       -0.84067912373508        0.01482933604739
C            0.69653111010718       -2.04534328841554        0.01110709585065
C           -0.63484607088912       -2.45316993831765        0.00323841534768
C           -1.85448590667900       -1.80665611757600       -0.00468700831771
C           -2.27024623043003       -0.47676804813824       -0.00479650850965
C           -3.63237816183700       -0.13561457109517       -0.01563386670593
C           -3.70145090412006        1.25381064160283       -0.00948836917419
N           -2.49891934127069        1.81768910448463        0.00476199035351
C           -1.58035216721336        0.82053066375528        0.00766213640363
C           -0.25888797351934        1.22303540125112        0.02021660131057
C            0.97132190965798        0.58062954640327        0.02042514898871
C            2.15110699257783        1.32842927029529        0.02257691924786
H            4.78361337584899        1.81142326322042       -0.15869941321695
H            5.26977810072439        0.17344257902026       -0.16402953091961
H            3.39927833726333       -1.72436430934263        0.00851899340289
H            1.38295039243979       -2.88861509008433        0.01358090610334
H           -0.73401870470937       -3.53433858854732        0.00190400562742
H           -2.69935873456778       -2.49087481135764       -0.01264067013493
H           -4.45935005952891       -0.82070335869836       -0.02645086041641
H           -4.58757072549358        1.86447670568328       -0.01506116665275
H           -0.18416982667974        2.30672011307882        0.02841545812328
H            2.19900074431734        2.40230208730241        0.02770096175519
