20
 energy: -40.855028544640 gnorm: 0.000608589557 xtb: 6.6.1 (8d0f1dd)
N           -4.18446771693861        0.83827760591614       -1.73590511828956
C           -3.38882033265947        0.31498750249575       -1.09445646836521
C           -2.42186314708143       -0.33108016691924       -0.32337909568636
C           -2.51868211467922       -1.61600933071884        0.27200880265087
N           -1.43705563367876       -2.01158827086428        0.91287393217203
C           -0.49638740942757       -1.07554223181644        0.71029158799492
N            0.75220081813585       -1.26057660822545        0.64340000465837
C            1.83742740284917       -0.63639598765990        0.26228389744838
C            2.91541537380042       -1.28017871297014       -0.32047304739167
C            3.85716316270903       -0.28313558592865       -0.65076161144595
N            3.42758051198624        0.93800678156633       -0.41732176095135
C            2.19176800572043        0.85864559936243        0.10150558017843
N            1.47966548321580        1.90363795888365        0.31664023677042
C            0.23944220693802        2.05247281923248        0.72077087328685
N           -0.81540532666355        1.38004114642301        0.37425786001183
C           -1.19902102372439        0.19232710913715        0.12335144187920
H           -3.39048375247774       -2.24634735639384        0.24552226600434
H            3.02861962250093       -2.33977584623980       -0.43675623839104
H            4.85046697645359       -0.44360747608921       -1.03105793727545
H            0.04110905732590        2.96675621950693        1.27250179784012
