33
 energy: -63.653561195417 gnorm: 0.000678486541 xtb: 6.6.1 (8d0f1dd)
N           -2.85701095834485        2.88829513752490        1.69693376067164
C           -2.02431232266718        2.35503890429331        1.11103643074460
C           -0.90821390886590        1.71044783578962        0.51952327913574
C            0.22183470359296        2.54044145860142        0.39374670931694
N            0.06208919965514        3.84014198643359        0.75814618579836
C            1.49891518628465        2.25651459845286       -0.13900929869944
C            2.27850899493446        1.13933328910108       -0.26703649919283
N            3.56468603675967        1.35597842292790       -0.64281612337371
C            4.22397863978767        0.21232706636830       -0.48603979965770
N            5.52915112491662        0.09834049105142       -0.76140961803041
C            3.37445343650301       -0.82867332987119       -0.01029249490980
C            2.10598321844596       -0.28941635903080        0.08737103744649
C            0.95842989424503       -1.07930621237014        0.32748977967227
C            1.28940221097282       -2.39424329403446        0.75171063030721
N            1.61290495779922       -3.39626063009689        1.20780465874257
C           -0.39469703180283       -0.84471558731420        0.10577164444654
C           -1.29864644671609       -1.92267393585355       -0.11300799987528
C           -1.02389768915203       -3.27871492494156       -0.30312199281998
N           -0.93029261564365       -4.40299855674403       -0.52701701831538
C           -2.59272329909728       -1.40961341409525       -0.30988903456182
N           -3.69284683223874       -2.10569960360858       -0.61814132503730
C           -2.52517485288403        0.00398312570700       -0.13724297440228
C           -3.64529092538646        0.81306022671964       -0.34343615331631
N           -4.61071857891509        1.38338579453937       -0.59854378552972
C           -1.19729575421451        0.38565027802685        0.11275145866104
H            0.82833359634667        4.48256423015409        0.67495452083136
H           -0.82138327850847        4.17492508116643        1.10287049343402
H            2.06110329880213        3.14806427216304       -0.39918750664035
H            6.02695321568938        0.90233196384419       -1.09934697832911
H            6.01790141780399       -0.76050945154675       -0.58769641943343
H            3.66825863950636       -1.84329990268100        0.17343589365844
H           -3.63861583288473       -3.10276386925502       -0.73984532121149
H           -4.56606390611915       -1.62948427072695       -0.76769326782598
