24
 energy: -43.744352605714 gnorm: 0.000496735072 xtb: 6.6.1 (8d0f1dd)
N           -4.69592741000710       -0.78070607992962       -0.01376451891577
C           -3.75124556737680       -0.12480142856907       -0.00791623779528
C           -2.58166984658362        0.63327203325323       -0.00185074733278
C           -2.47270588374095        2.03354121931336        0.00043966290107
N           -1.21796013209076        2.44278632136737        0.00690622431098
C           -0.41346447792263        1.36163332092999        0.00935034284971
N            0.86290471544369        1.59137515360691        0.01598711138673
C            1.94110438077733        0.87016108734077        0.00764088275302
N            3.10517492292879        1.53119289627506        0.01346074424923
C            4.09170101374158        0.63591705495697       -0.00639217480368
C            3.62996739539158       -0.67266785869726       -0.02052585810069
C            2.22312230615104       -0.61847830664243       -0.01104224773868
C            1.46728881649635       -1.76932774007581       -0.00335996562902
C            0.09571225104615       -2.07497089378650        0.00407272973840
N           -0.19091629354408       -3.40993273823462       -0.00075429355906
C           -1.03270658218264       -1.23989127622746        0.00075817157344
C           -1.25591567712882        0.11924709547177        0.00335095274265
H           -3.28484528450731        2.73871711739888       -0.00238112542690
H            5.11576620712568        0.96535116593521       -0.00998012837578
H            4.22867123484529       -1.56382115856578       -0.03692654933461
H            2.08419091863000       -2.66659931992434       -0.00397573636620
H           -1.14200877325735       -3.72834720090281        0.04362132738390
H            0.54205924259494       -4.09377868658668        0.04163008815740
H           -1.96210209593033       -1.80820009070709       -0.00500055326809
