22
 energy: -45.083856542823 gnorm: 0.000690673263 xtb: 6.6.1 (8d0f1dd)
N           -3.01152640851973        2.47923903325912       -0.27713409239938
C           -2.04676834723055        1.86639499618403       -0.18985623037087
C           -0.82498259418780        1.14403404128959       -0.14144260744896
C            0.30218153210532        1.96192113880693       -0.36728902658128
N            1.56066892537858        1.78532537753682       -0.12676054992456
C            2.42076804183391        0.83163494130778       -0.04795204594802
N            3.66794649579883        1.07200235805508        0.38686782621649
C            4.30888209332792       -0.08222478359484        0.46560390406475
C            3.51162462824283       -1.18130199480336        0.10862364670091
C            2.27983293480194       -0.66219243683513       -0.28540064762791
N            1.24070228793436       -1.40675636357135       -0.54367527257749
C           -0.02894280840366       -1.33416567026952       -0.48833292889835
N           -0.77043341412912       -2.45753576409157       -0.72657650140953
C           -1.97104904796049       -2.24729464377112       -0.27100194274782
C           -2.15943876263798       -0.91836796511087        0.23358947446135
C           -3.32228475135730       -0.46470484360911        0.86207086982652
N           -4.28220882462464       -0.15077164476027        1.40755265479984
C           -0.95673646853291       -0.24376457962318        0.01497622755219
H            0.06812925998703        2.98647763429205       -0.65126274976620
H            5.34423057448548       -0.10316976272750        0.75581183813638
H            3.79166969506212       -2.21582042797950        0.09804123268453
H           -2.71982135107230       -3.01898405419004       -0.29479294414051
