24
 energy: -42.957038311412 gnorm: 0.000854629469 xtb: 6.6.1 (8d0f1dd)
N            4.41189171223086       -1.41804624896887       -0.46546585414286
C            3.29854271280013       -0.72370169094983       -0.16018349842503
C            3.17778383452089        0.66525956059242        0.00618395264179
C            1.82586763276679        0.92391653294648        0.21023710843799
C            1.24997207737344        2.18709981976526        0.26544116685860
C           -0.07932158278158        2.58578761608806        0.24683996467235
N           -1.18553346427661        2.00644104537784       -0.14627735492812
C           -1.69738258517325        0.83304518494648       -0.25029097136422
C           -2.97987011954754        0.47996031270607       -0.65524703917137
C           -3.29638117152303       -0.69140812922051        0.06090995244562
N           -4.48558354190572       -1.30870827735300        0.09227963495113
N           -2.27479768852022       -1.17545917217378        0.80356705828206
C           -1.21105221325826       -0.44094462864973        0.49603785108032
N           -0.00380001401515       -0.84495607599271        0.55524203154862
C            1.19605049467944       -0.43971989482217        0.23424344173926
N            2.11622102264741       -1.36302334584208       -0.03642579813707
H            5.31391775841417       -0.99175268350482       -0.34982133213514
H            4.34154280888281       -2.42068562670496       -0.45876399479937
H            3.97196344770786        1.38373512594082       -0.05440751212506
H            1.96426604343066        3.00131744634771        0.32848869246801
H           -0.25445386067656        3.63079384577565        0.50165207116929
H           -3.63525348757475        1.03244388305859       -1.29809499883042
H           -4.57530066461670       -2.13970667233530        0.64935152785154
H           -5.21732978168550       -1.04601543652800       -0.54241071238819
