26
 energy: -52.793231654954 gnorm: 0.000828092451 xtb: 6.6.1 (8d0f1dd)
N            4.47484887028866       -2.00768652883005        0.42374533587849
C            3.78595075267420       -1.11611711119621        0.20372798860369
C            3.04487093389307        0.03450957315099       -0.07802466389382
C            3.60864860686558        1.20337663117488       -0.67530248161588
N            2.75743128401201        2.18703257706447       -0.79470872856737
C            1.58529273683311        1.78038304099765       -0.23103606956182
N            0.71658514616522        2.65925432697846        0.09408862576151
C           -0.48868324014797        2.78145327500798        0.56716737948257
C           -1.60080442652501        1.97403836078454        0.37657356467352
C           -1.69566058317771        0.62110361022192        0.06231295635692
C           -2.93367424624480       -0.01204178476778       -0.14482520495349
C           -4.18557804964182        0.58126491436666       -0.28601113811779
N           -5.23266741953105        1.04093507044649       -0.40447216833088
C           -2.67966131380088       -1.41724598019815       -0.16482110627069
N           -3.56703593952616       -2.39282741099835       -0.34488144261261
N           -1.38137417230488       -1.66949274487474        0.03140021425647
C           -0.72981494964078       -0.50373152941889        0.14177462209311
C            0.66194781639346       -0.60774364699784        0.28764307948347
C            1.07256164473071       -1.96649469654272        0.42778283865300
N            1.40031147235485       -3.05305351057901        0.57857461764343
C            1.68906614330810        0.32441897060520        0.12588996252004
H            4.62564397725783        1.30428008791579       -1.01035152476159
H           -0.65983289716454        3.74685642264098        1.03638973120245
H           -2.55734876902267        2.46829677471203        0.50915847738114
H           -4.53911831169618       -2.18703862008699       -0.49738078767281
H           -3.24448833345204       -3.34543048577803       -0.32692763233303
