24
 energy: -42.959377956296 gnorm: 0.000801137480 xtb: 6.6.1 (8d0f1dd)
N            0.92047270453615       -3.55372414597808        0.03371387918786
C            0.69067222682567       -2.20438977372681        0.00718691633476
C            1.86080451076234       -1.42013770890113        0.01331066623344
C            2.15268853574826       -0.07772094249019        0.00730174370531
C            3.48492872902183        0.37782695846982        0.01731299860632
C            3.44636411300710        1.76130556710510       -0.00164580054861
N            2.20457931020421        2.25142166592511       -0.02385613416626
C            1.35313273009208        1.22024408682718       -0.01837611152617
N            0.08993439440181        1.50605651118804       -0.03287683341239
C           -1.01559807042263        0.81409369425092       -0.01971017600407
N           -2.17136937886983        1.48106058098295       -0.03013992426843
C           -3.12933040024119        0.54047300080273       -0.00195325968359
N           -4.42604556865426        0.85688979219418       -0.00971812962268
N           -2.69851952123790       -0.73291359384994        0.02189749589094
C           -1.35886280432594       -0.65343029605086        0.01102638310264
C           -0.65718661698742       -1.84422703923712        0.01354578746912
H            0.15296797332587       -4.19196987600302       -0.07336681208723
H            1.85016918387745       -3.91196372484401       -0.08817721401724
H            2.76001925783443       -2.03520837473094        0.02650323545461
H            4.36372900275195       -0.23915266225780        0.03603833310948
H            4.28598639897788        2.43498197779366       -0.00020418799815
H           -4.68467343932337        1.82623209834806        0.01339023334076
H           -5.11453617229208        0.13051215192061        0.06191539140493
H           -1.33792722601238       -2.69131648543847        0.02196570629467
