32
 energy: -48.715086400864 gnorm: 0.000841176322 xtb: 6.6.1 (8d0f1dd)
N            2.14382823417420       -2.81005299521336        0.77299555862688
C            1.26862510342851       -1.84237111313305        0.33118207494448
C            0.01019845078024       -2.34323282607024        0.00574863589443
C           -1.24910662967765       -1.84976043228140       -0.34178688710956
N           -2.06985833995011       -2.79218674545760       -0.89896325120911
C           -1.85336024153872       -0.59330691927542       -0.09320282778725
C           -3.24614393567874       -0.43729172459617       -0.01964852945901
C           -3.56971194674262        0.88208813915189        0.27887689155721
C           -2.39059776897820        1.60652292116392        0.36286606567883
N           -2.31294660817683        2.96938423795725        0.58897738878453
C           -1.28544217576192        0.72603057216265        0.13391088770115
C           -0.00977444318872        1.24777627200215        0.00947548647462
C            1.27013856513065        0.74086102470218       -0.11453115400280
C            2.36813115931768        1.63639291611217       -0.32904271154134
N            2.27490903964696        3.00046663369663       -0.54156749704516
C            3.55435466097695        0.92566246877844       -0.24013534339132
C            3.24402318761887       -0.40109124626979        0.04373542159159
C            1.85373645437972       -0.57387191235607        0.10221759465656
H            1.76176593439277       -3.69148691362327        1.06921506156190
H            2.98198467293489       -2.51061557649785        1.23597144013195
H            0.01596238746068       -3.43323442545370        0.00562458260818
H           -1.79619702875120       -3.75907232251270       -0.89118720078289
H           -3.03822059447476       -2.58047656573205       -1.04887891004459
H           -3.98858961664985       -1.21390956499099       -0.09553954104600
H           -4.56179145172077        1.27089060703194        0.42505892510577
H           -3.16198269200767        3.36990689232957        0.95875687886114
H           -1.48608096103304        3.28927240090215        1.07096876488816
H           -0.01639113981060        2.33470538292939        0.01155097254322
H            3.12209787130485        3.41424490945958       -0.90107856119337
H            1.44896902876312        3.31366219374823       -1.02953845387466
H            4.54284481649860        1.32784695501259       -0.37414447739726
H            3.98710316413275       -1.17518431608070        0.12148500317639
