26
 energy: -42.398781502393 gnorm: 0.000487339311 xtb: 6.6.1 (8d0f1dd)
N           -4.67138491050742        1.18979935041488        0.54932321063033
C           -3.45185242136668        0.68028080541570        0.22486231292175
C           -2.38495559001437        1.41977089359853       -0.32392991526864
C           -1.26086466550944        0.60341120744672       -0.43176070692571
C            0.01027174329618        1.11452189083617       -0.65046251534016
C            1.27813339647698        0.59491666600422       -0.43322007284732
C            2.40544359206326        1.40576678578917       -0.31691581088405
C            3.46550432354240        0.66012633392085        0.23663968750556
N            4.71698688541566        1.13541075736275        0.47456600280506
C            3.03740358102383       -0.65526250054732        0.43423743031176
C            1.72493296039090       -0.78174562406363       -0.03398920684291
N            1.19349706659806       -1.95169127218914       -0.26871233392656
C           -0.00190465255549       -2.36721482665157       -0.58755563308911
N           -1.19374202903218       -1.94323039076813       -0.26565578901800
C           -1.71583661118146       -0.76935199398084       -0.02887885863109
C           -3.02978993037531       -0.63481743513328        0.43319840605088
H           -4.94785566480124        2.05973802349633        0.12697003529016
H           -5.40858001533522        0.53998680476532        0.76391241397025
H           -2.42168590991860        2.46628738344565       -0.56821134169820
H            0.01360576409556        2.18369179357301       -0.84939673050459
H            2.44752173722559        2.45315317677435       -0.55697243726640
H            5.32613771218587        0.59578507531664        1.06467050640271
H            4.86164810671486        2.12999939275581        0.45799525399648
H            3.63158135876802       -1.46522472867329        0.81202405898411
H           -0.00597407570273       -3.36024878571271       -1.03958267863744
H           -3.62883528259732       -1.44068722089556        0.81121745241064
