22
 energy: -45.090624458556 gnorm: 0.000271064465 xtb: 6.6.1 (8d0f1dd)
N            4.59896382424422       -1.38661218777576        0.38447827775838
C            3.49985136401081       -1.07873937066589        0.29599819463634
C            2.12054902608765       -0.75234080422566        0.20748693187257
C            1.23958132976405       -1.84355455840017        0.31102310455577
N            0.04526034375618       -1.98725819439376       -0.17137396515788
C           -1.05646476118786       -1.43209458921810       -0.43798551145983
N           -2.12983463112381       -1.94318175776886       -1.01975556450452
C           -3.19565055613949       -1.26673501195753       -0.57928482828556
C           -2.89281007826315       -0.16369102053739        0.22321324056839
C           -3.77893834307672        0.70116120360521        0.86652513309281
N           -4.51130703232444        1.41109432358046        1.39349202405026
C           -1.47395543558031       -0.05270357804971        0.19115419541539
N           -0.72530759015619        0.95589507978167        0.19652810634459
C            0.51772708284894        1.32391685019219        0.01593486525983
C            0.86656271363383        2.62816211863190       -0.34751011912417
C            2.26386388997725        2.67379279428448       -0.35547893782659
N            2.81319170600499        1.49290883376711       -0.09832914586368
C            1.82906687907876        0.60630259016241        0.08719800264491
H            1.63992368796810       -2.75096932038924        0.75666910814355
H           -4.18152400454377       -1.58373312876855       -0.87022438671914
H            0.18452843377307        3.43735104773845       -0.51507483121666
H            2.88616605714521        3.53428382220402       -0.51977421978524
