23
 energy: -48.817171571753 gnorm: 0.000859989300 xtb: 6.6.1 (8d0f1dd)
N           -4.25318951617667        0.61436156634389       -1.52899692844035
C           -3.29437913165452        0.83653719607653       -0.93752373005501
C           -2.14027750315779        1.16324317507510       -0.22366856511498
C           -1.96379063386067        2.30238071827703        0.58015411732343
N           -0.74290573933023        2.42008503639841        1.08674769920541
C           -0.00117367081654        1.41318720970556        0.60413362804459
N            1.28110560326741        1.47463245905548        0.58494588488878
C            2.28139386508634        0.78465273910620        0.16055078400969
N            3.43243714415732        1.33104165908278       -0.24247367900146
C            4.15887813578596        0.32151431861096       -0.70436013714873
N            3.59274475538103       -0.89042073082210       -0.69786060768894
C            2.39914073669803       -0.71249668402141       -0.14853677422700
N            1.53030265137123       -1.65279198886243        0.02147975568266
C            0.27452914244937       -1.79742071341924        0.28790778696156
N           -0.08431917246135       -2.92672683132495        0.91909411244283
C           -0.82517205683628       -0.93781918049383       -0.16827468888264
C           -1.96341749553734       -1.67763639778113       -0.56723719153793
N           -2.84715123826662       -2.35044338200040       -0.85714888447699
C           -0.92619805212726        0.43097102576507       -0.10906019190579
H           -2.70964440305187        3.04851486634939        0.79054126034973
H            5.16059484983360        0.46765885089588       -1.06526386722130
H            0.63517180987701       -3.59117431570008        1.15596145277709
H           -1.05080544403269       -3.20249136631565        0.98423567231382
