22
 energy: -45.090607412938 gnorm: 0.000813998394 xtb: 6.6.1 (8d0f1dd)
N           -2.80274011763186       -3.59161587984526        0.10378166091749
C           -2.00061314181226       -2.77487209314343        0.09244326298598
C           -0.96521241965300       -1.80306921274823        0.09631965859667
C            0.33992831791634       -2.31445073316301        0.15300638002512
N            1.45496483988865       -1.79156909326771       -0.25960192462983
C            2.14401450815197       -0.74767083773190       -0.40213182788004
N            3.32830878558283       -0.56683001118504       -0.94044871482379
C            3.90508770518469        0.48065377160504       -0.31633632972521
C            3.08264871425949        1.15715250405654        0.56542947217496
C            1.80702933184686        0.58542231524500        0.41264295166618
N            0.64668783833875        1.05989151992134        0.43745615538616
C           -0.60422340997381        0.78581188602853        0.17559249692409
C           -1.55352869524617        1.79390191678972       -0.11319906202309
C           -1.31015275231018        3.16639237402904       -0.20324798537737
N           -1.11201486876855        4.29383200850425       -0.29020878256425
C           -2.79546246031856        1.13668581741288       -0.22545798162681
N           -2.68255224352650       -0.17287130311629       -0.09664281582227
C           -1.38909154376828       -0.47062550255996        0.09626425742308
H            0.44367111574220       -3.34430575025810        0.48611158575415
H            4.92364096384220        0.72696475948622       -0.55894757684362
H            3.32819265837339        1.99282209954940        1.18850545931245
H           -3.75402110562150        1.59717777329575       -0.37820144205107
