29
 energy: -60.747007465948 gnorm: 0.000794347202 xtb: 6.6.1 (8d0f1dd)
N           -5.30655318856184       -0.10416163412439        1.33311265619450
C           -4.36407182903218       -0.45821705798912        0.78045270634931
C           -3.25751636684152       -0.96444595679968        0.09605579827317
C           -3.29663497200702       -2.06300560940803       -0.77981081059745
N           -2.11146759531475       -2.40027591778776       -1.27463432465887
C           -1.20522224097209       -1.59197511641285       -0.71193290112844
N            0.03393160435788       -1.92079023783907       -0.63730735147201
C            1.13523055365897       -1.44921733263946       -0.15053834484759
N            2.09363954227211       -2.29491991143824        0.24473843057985
C            3.19273364527817       -1.57868321972067        0.46745400096624
N            4.32634850916909       -2.11886594204341        0.89522864931307
C            2.98555340374067       -0.17208740627149        0.19624086401746
C            4.00111958867077        0.76825885852638        0.36629961907754
N            4.90389052178611        1.45108182716589        0.56557360339650
C            1.64149208233562       -0.04034445271266       -0.12954277188922
C            0.97048119958706        1.17466621893003       -0.37834180314214
C            1.85174299084638        2.23517819479872       -0.71633755283335
N            2.53245217004168        3.09592514516802       -1.05298925175639
C           -0.37388766528851        1.56203464497572       -0.23950675736277
N           -0.65998668434165        2.85367396497836       -0.52871172639127
C           -1.51591553389047        0.81169540457041        0.24413784755862
C           -2.48128660801768        1.65235643714390        0.86460367004205
N           -3.19578865795625        2.36293963458194        1.41287622857439
C           -1.91762139513447       -0.49065539928632        0.04298328218025
H           -4.17672106420615       -2.61706285373333       -1.05435977840706
H            5.15021525552035       -1.55339892605419        1.01631930077944
H            4.35777338118312       -3.11016816916642        1.06571234634279
H            0.08003130465542        3.49285260245692       -0.77191625723988
H           -1.57857672751794        3.22769828044029       -0.35619540292474
