25
 energy: -48.267907023083 gnorm: 0.000900924290 xtb: 6.6.1 (8d0f1dd)
N           -5.04263105738521       -0.38967316843265        1.02343747044377
C           -3.99709612951902       -0.73334658421147        0.68991813695970
C           -2.71962931495149       -1.10164558930249        0.27481698385365
C           -2.27413400031927       -2.36970433144248       -0.12214677071534
N           -0.99582267969097       -2.37860418201777       -0.46702699661998
C           -0.49976703500041       -1.14073438933446       -0.30108770620285
N            0.78863429488014       -0.99555221316323       -0.40613531368617
C            1.61897321936691       -0.02236125334281       -0.18999076494340
C            3.00388784046575       -0.26730890101207       -0.04487914914308
C            3.65781697828977       -1.47507404284561       -0.30841893764371
N            4.23312966211359       -2.44532128873261       -0.52297156592202
C            3.62910231781666        0.90158480310943        0.44032730245597
C            2.69659794836691        1.90711135749147        0.58489610070300
C            1.43440330468180        1.44498328364192        0.15412444200507
N            0.42918689782508        2.25024560785914        0.02670786423842
C           -0.85110689453004        2.18385773215246       -0.24235049809842
N           -1.38330854484698        3.33791940847807       -0.71145101906878
C           -1.77112069313865        1.14256114807691        0.06718224905623
C           -1.61191997040042       -0.21671219055404        0.11065584858070
H           -2.85775149259330       -3.27221620901888       -0.15749665133759
H            4.68015152001957        0.97949642841969        0.65423434556429
H            2.88728988358946        2.91023309915260        0.91553872159118
H           -2.37155123073757        3.43740061086257       -0.85463581948514
H           -0.77683514978848        4.12342005014852       -0.86854528213124
H           -2.78734352731731        1.48981808232153        0.23209201204781
