22
 energy: -44.311446806371 gnorm: 0.000774792885 xtb: 6.6.1 (8d0f1dd)
N            4.98010351676252       -1.05213991014959        0.59866956774419
C            4.04255226818934       -0.42647143889444        0.37949173841391
C            2.90311956814454        0.34215093454655        0.13187034894907
C            2.81022053410585        1.74283735098009        0.11734790085285
N            1.58599585760277        2.18422134515219       -0.13574081396911
C            0.78636969360183        1.13322859372277       -0.33158538544595
N           -0.49258683583529        1.28349213561024       -0.38298489709809
C           -1.55921388940928        0.55931789345207       -0.26213407424558
N           -2.76654413466571        1.08592625828048       -0.40603040341726
C           -3.62240044011147        0.16974085832523        0.10490931338335
N           -4.92923864692540        0.39473216738998        0.15155756980987
N           -3.06900230455557       -0.96863616627481        0.55493928054309
C           -1.77056921101910       -0.87142074460290        0.24990877071178
C           -1.00918629741973       -2.00750811225033        0.10093712284307
C            0.29380270775419       -2.16854441295062       -0.40528364202562
N            1.31150482424112       -1.38282745456729       -0.34929379400066
C            1.62394808091483       -0.13920386178176       -0.24258632155514
H            3.61739736568652        2.43569521953003        0.27664783070235
H           -5.53330513082541       -0.28001049207326        0.58627405697471
H           -5.28604378084350        1.26501398523375       -0.20232472732930
H           -1.56052208375736       -2.92422783221305        0.27436143214498
H            0.53659669866979       -3.15749073616270       -0.78711923118722
