27
 energy: -51.724000345475 gnorm: 0.000548972404 xtb: 6.6.1 (8d0f1dd)
N            5.04577567242174        1.03701153692281       -1.53438025904271
C            4.24633624613781        0.38130210900294       -1.03163555270932
C            3.27576431437737       -0.41133761932947       -0.42273320734357
C            3.41641695276183       -1.75249497791818        0.01413570057830
N            2.33711619269044       -2.24867556658322        0.57577050621496
C            1.36281808500699       -1.31024266138543        0.48323670670850
N            0.13512929122722       -1.66101523704450        0.61143910529626
C           -1.03184591559813       -1.09067663789466        0.35341431124111
C           -2.15572028117100       -1.89480770065475        0.30210721029840
C           -3.29071526435993       -1.13456657348936       -0.07968902558612
N           -4.53817723520957       -1.60669575749848       -0.22214954479144
C           -2.87682864755576        0.18971581340632       -0.27815769510495
C           -3.70601310162570        1.24611098235985       -0.64487430604050
N           -4.40094702565079        2.11254861674489       -0.94756431514781
C           -1.47561449035395        0.29993009672180        0.00635826463327
C           -0.85460599470402        1.51016627254542        0.00594090659703
C            0.49248967992912        1.86572114363725        0.34805152394531
N            0.66945952233637        3.10042569470865        0.87821111620650
N            1.58366564321513        1.20989588587607        0.09267998513347
C            1.98742420195590       -0.01604413782847       -0.02193391148911
H            4.31102154580178       -2.34519167464440       -0.06951749836397
H           -2.15054486684351       -2.94903252710164        0.50197653109917
H           -4.73627696792722       -2.57685377422728       -0.05617465165404
H           -5.28256313180230       -0.99227175744802       -0.50297177136004
H           -1.48831613459877        2.35903119109990       -0.23163505778826
H            1.60867316582122        3.43229238501572        1.01561011391376
H           -0.09519193717370        3.74737173211020        0.94488566525142
