25
 energy: -42.684150221467 gnorm: 0.000521395828 xtb: 6.6.1 (8d0f1dd)
N           -4.59622139936479        0.73717961021060        0.31133596302784
C           -3.27568456384721        0.51286980986942        0.15315732165393
C           -2.30393941419321        1.47192665169130       -0.23903488306588
C           -1.07413777321083        0.83563406585867       -0.20552009219239
C            0.12634107764624        1.52823167969734       -0.41718683436447
C            1.44204301250295        1.20935674075765       -0.20630886790867
C            2.47661761400218        2.17005278554295       -0.13701149635785
C            3.56257444989340        1.53644519144235        0.43165268327375
N            3.35290195848566        0.22999340797838        0.67268894734173
C            2.11642358084567       -0.05060050681451        0.25761628506001
N            1.76304376742621       -1.29992469604141        0.15627076953195
C            0.69739645801085       -2.00807903324092       -0.07315695197021
N            0.96106807936307       -3.27110849502416       -0.51498516398721
C           -0.67314540710554       -1.72292206526746        0.18784022765219
C           -1.39563388392339       -0.56241572277275        0.17686445086599
N           -2.73248415876882       -0.67259800973405        0.40359892057885
H           -5.01128572407566        1.56512788034408       -0.07562468158120
H           -5.18299527391331       -0.05801529235749        0.49233778262876
H           -2.49548149829229        2.49998055879295       -0.48086284181869
H           -0.03690005848532        2.57394641746949       -0.67022908507208
H            2.40463036466951        3.20201344569370       -0.42244693638250
H            4.51469636735633        1.97228016981762        0.68118872845391
H            0.24754362417307       -3.97718249614676       -0.49281751800164
H            1.92570225408317       -3.55513369962827       -0.53846415868660
H           -1.28544758887781       -2.59460100263866        0.39064031342020
