27
 energy: -51.717590649650 gnorm: 0.000778189591 xtb: 6.6.1 (8d0f1dd)
N            4.27435488782841        2.13349415592857        0.54292019548038
C            3.53689875812144        1.26465325668297        0.38398297968975
C            2.71390590270788        0.15998412747200        0.18014246483782
C            3.18395785432794       -1.11531293075931       -0.23084842195144
N            4.46815057304622       -1.41229045502656       -0.46831438648490
C            2.08955893184164       -1.99303776036043       -0.33301970871496
C            0.92447570560372       -1.32597803673999        0.01387959630874
N           -0.21860673906073       -1.94545827956395        0.17397637959928
C           -1.47509562895580       -1.65938529908733        0.27794728956772
N           -2.24341483795119       -2.59818106844064        0.87900592666893
C           -2.19180893636553       -0.52428461362409       -0.28166881997331
C           -3.50523916530314       -0.82221076422030       -0.71208108418416
N           -4.55557559204777       -1.14686515176516       -1.04375921946139
C           -1.82029104149181        0.79894550681005       -0.33687298570656
N           -2.75236812080972        1.70911749554253       -0.70747231333312
C           -2.34170147084563        2.88752221490418       -0.26386279439073
C           -1.08554491824301        2.84252106166659        0.35285350673673
C           -0.63601191290713        1.52458888901323        0.24995924208635
N            0.61147925874736        1.19111982523210        0.46900306722598
C            1.30399690131325        0.11226690117331        0.28528915731186
H            4.73419385150165       -2.33092036916258       -0.77496311640894
H            5.17611108056152       -0.70855352465194       -0.34479952609538
H            2.14858846125826       -3.03143160826944       -0.59839062586936
H           -1.80619762784647       -3.45868984988249        1.16092290705648
H           -3.24614195870993       -2.55693441021370        0.80835623872926
H           -2.95611849605244        3.75773840408690       -0.41498877822306
H           -0.52411905306914        3.66565100965548        0.74504048909781
