36
 energy: -55.584982805216 gnorm: 0.000612436710 xtb: 6.6.1 (8d0f1dd)
N            1.90869261406810        3.30395363558314       -0.39189534264970
C            1.13534786926977        2.17767912110638       -0.24896860775903
C           -0.21104127079010        2.37201941835176       -0.53106672650683
C           -1.39803279274218        1.69076876133330       -0.24484185911795
N           -2.51440389267404        2.49852489923915       -0.30226834103583
C           -1.64575774060955        0.34283805008267        0.08781542578975
C           -2.92229039040741       -0.11579250322918        0.50820734157903
N           -3.99107949083212        0.66044694101379        0.96799720708767
C           -2.97981370755835       -1.49806439530161        0.39070694000751
C           -1.77097653572525       -1.94986568902016       -0.12795807578397
N           -1.50703753381568       -3.30156366153533       -0.36536514693992
C           -0.88555873999516       -0.84732858581523       -0.27303021327777
C            0.47101103687696       -1.04427810145163       -0.58685904664649
N            0.76811195200538       -2.19090232253367       -1.27363040573667
C            1.59532733313725       -0.35881244561465       -0.05809488968392
C            2.76811843464224       -1.05086948151636        0.33187113288853
N            3.01101945365895       -2.43200404501045        0.25340609293949
C            3.67282718926837       -0.13871130113143        0.87626976301210
C            3.13051297522919        1.12743583869297        0.76164790190120
C            1.83916338664695        1.03707754189032        0.20564323202848
H            1.50280509280088        4.12638790775595       -0.80227516580761
H            2.90367559425151        3.19587198027914       -0.46172074137195
H           -0.40312534591387        3.37558700319359       -0.91043593095110
H           -2.39891836513182        3.40840534026532       -0.71711462336213
H           -3.40178939430800        2.04867794050507       -0.46240924039293
H           -3.70209112364346        1.43989583984656        1.54461708946891
H           -4.68957228411414        0.09487205622279        1.43288669852994
H           -3.81654127541588       -2.11901613987849        0.66034463736263
H           -0.56852271772027       -3.58615244713053       -0.11475144275488
H           -2.19943166346897       -3.89308929564306        0.07641511181517
H            1.71842639180690       -2.30048415464686       -1.58688979106402
H            0.03794925440522       -2.59985385336849       -1.83203780901343
H            2.18995247846508       -2.99448263040940        0.43978367170447
H            3.77299812295844       -2.70051144012299        0.86405566742368
H            4.62855716035676       -0.39021495565606        1.30194453746405
H            3.60443276530436        2.02775414539005        1.11163221605426
