29
 energy: -60.758089904923 gnorm: 0.000933257325 xtb: 6.6.1 (8d0f1dd)
N           -5.09338710898265        0.50805541544204       -1.75659433670216
C           -4.16007913025771        0.77011730680697       -1.14037795631264
C           -3.03357800310808        1.15715623954925       -0.41338386659538
C           -2.85054973494341        2.40868142365211        0.19786971000365
N           -1.66493408111788        2.54948436700346        0.77319767169739
C           -0.95344246316343        1.43773847501445        0.53511256107740
N            0.32899685903192        1.47343740013987        0.68479054317911
C            1.32665953543466        0.68807165716900        0.40090027728601
C            2.62050062755152        1.18031678284429        0.15681161485722
C            3.06236975129090        2.50164081031569        0.25743939163366
N            3.50432938797860        3.55990442943983        0.32084802882488
C            3.45538747775074        0.10847284271446       -0.27099512613213
N            4.73782170214743        0.21728049962628       -0.61211396706605
C            2.69201610502507       -1.08725127213758       -0.26717318396927
C            3.19172145125917       -2.34894234314403       -0.59852781264731
N            3.63591205048961       -3.37068205548921       -0.87868594640987
C            1.38767255536419       -0.79578669326604        0.16748496310912
N            0.49176821919521       -1.70793414301236        0.38943316476233
C           -0.78842342390196       -1.80841250833396        0.56640313999195
N           -1.20819995595951       -2.89083331430660        1.24759977842179
C           -1.82381371239552       -0.96862171754485       -0.02141382222867
C           -2.96774267625468       -1.70394922867644       -0.40932116716350
N           -3.85708346148531       -2.37511331540288       -0.68502317714893
C           -1.86644222542513        0.40538512524999       -0.10681226720628
H           -3.56391713387853        3.21320246275072        0.21856753215371
H            5.19731936542822        1.11243903961721       -0.57023948141401
H            5.25604965226410       -0.59216640162309       -0.91233536806960
H           -2.18124103041049       -3.14865309805530        1.26117035188602
H           -0.52063389631874       -3.55907593933161        1.55524478837977
