19
 energy: -41.120073783511 gnorm: 0.000607165466 xtb: 6.6.1 (8d0f1dd)
N            3.52853758933434       -2.27502882866333       -0.63494858117083
C            2.56610950050319       -1.69344578796767       -0.41646042131675
C            1.34750103169096       -1.02355689253361       -0.13473261942937
C            0.32235011906455       -1.86023669814408        0.43490954664451
N           -0.94133915179196       -1.75066714908103        0.36127701953341
C           -1.89383667938392       -0.90322727460850        0.17067937780327
N           -3.10469750029051       -1.22514265626084       -0.27047524243974
C           -3.76962528904698       -0.07155816612225       -0.36368664682388
N           -3.08440679669596        1.03356709364615       -0.09279976148854
C           -1.86720367095556        0.62741934813888        0.26084761101056
N           -0.86442123821571        1.42469949321120        0.39710357375862
C            0.41267422831673        1.41997117386886        0.31727129638934
N            1.16991443999154        2.49885839065979        0.52306907635972
C            2.35642915270661        2.21172121831445       -0.01255211144610
N            2.50683367770333        1.00225682490592       -0.54052648790840
C            1.37437455824736        0.34858483060311       -0.25775181366600
H            0.67758926171969       -2.77638465990294        0.90261505374867
H           -4.80697855451164       -0.04222052920676       -0.64161002696345
H            3.15184134481365        2.93457310583720       -0.02890984399230
