25
 energy: -52.290185695599 gnorm: 0.000904715935 xtb: 6.6.1 (8d0f1dd)
N            2.65978816148148       -3.43710980556070        1.57753129060348
C            2.55434629397125       -2.47965916140471        0.95186325807468
C            2.45763597561060       -1.30596966458930        0.20530412972202
C            3.37249392120580       -0.84437918568502       -0.76304118231310
N            3.04804977018967        0.30796287078484       -1.33971333176994
C            1.95203731176484        0.74375388420774       -0.70834141966259
N            1.61711142325984        1.97210847293203       -0.58948258478852
C            0.68446626590545        2.60645684308596        0.11019615782738
N            1.11461387262532        3.62182709091891        0.88289465793752
N           -0.62595206657471        2.49247253895149       -0.03168909514950
C           -1.37540553406461        1.44419540374355       -0.07515202783587
N           -2.67568215940753        1.52448441247534       -0.35420425562068
C           -3.18408751192959        0.29232518396212       -0.30202860666433
N           -4.46963232927355        0.04668474978006       -0.52978977459109
C           -2.19489261719481       -0.70221217437807        0.02015247798745
C           -2.46310889029714       -2.06596997316303        0.10788925203096
N           -2.75965143224219       -3.17576752825213        0.15268824786970
C           -0.99380430318683       -0.01606984465923        0.19549563841815
N            0.14363885923947       -0.61168549834518        0.44310946815479
C            1.37444284112928       -0.39801876739800        0.15183784293307
H            4.27075665369340       -1.35653387941394       -1.06276030606895
H            0.43357752720081        4.25572730412893        1.26463363703727
H            2.08213888025417        3.89266229536183        0.84346350707344
H           -5.08221389939681        0.81568199461873       -0.74219323843110
H           -4.82466683546069       -0.89396467480043       -0.49212160726979
