31
 energy: -53.832996913393 gnorm: 0.000863337195 xtb: 6.6.1 (8d0f1dd)
N           -5.35773509249105       -0.63533512263149        0.35763322580155
C           -4.22081412565626       -0.50927625775212        0.22086611066335
C           -2.84697230794171       -0.34333991430223        0.08086646702741
C           -1.87912008364800       -1.35007393070827        0.13599005441923
N           -2.15469391633869       -2.67241616182213        0.25410603848193
C           -0.57732611309620       -0.75414568450168        0.01010205310165
C            0.54444753512896       -1.53594221860031       -0.14417374965371
C            1.91317268988369       -1.26475171277620       -0.22186827745668
C            2.86634774385368       -2.27382310585390       -0.50415100814636
N            4.11542208619164       -1.84255225157511       -0.41246541644730
C            4.03866288041049       -0.56052608573219       -0.01789051556723
C            2.72127106304851       -0.12067101591049        0.11019769494375
C            2.32232067703691        1.16052712306644        0.59244508713072
N            3.12847056307827        1.75746439739664        1.49641654454218
N            1.32248932805782        1.87144838123230        0.16205741235910
C            0.14569108740692        1.71178139005340       -0.37984421339866
N           -0.28171906598077        2.79904004669152       -1.09599415468036
C           -0.80129201786677        0.68660783210104       -0.12874808090828
C           -2.18449332018019        0.90220977642115       -0.11326366821706
N           -2.85652882384140        2.08759644457766       -0.25247001052650
H           -1.42596354412147       -3.30850897793853        0.52679360149153
H           -3.09983178393238       -2.93407239002702        0.47855703514949
H            0.33725857720307       -2.59915109883266       -0.23500233349091
H            2.65423859459238       -3.29143477427004       -0.78194735141431
H            4.93930931303171        0.01694406125284        0.10704374188833
H            3.99595136882994        1.32054866019585        1.74987654756791
H            2.94469570314811        2.70489776001573        1.77603355791364
H            0.43192249645066        3.46402373556265       -1.34909689193357
H           -1.02806160401035        2.65897508644044       -1.75650134257433
H           -2.34910406350365        2.92469829968316       -0.00851462936898
H           -3.81925097124364        2.06860265224295        0.05027317060219
