24
 energy: -42.969726840251 gnorm: 0.000998006556 xtb: 6.6.1 (8d0f1dd)
N            4.57664477730139       -0.72585414684888        0.24425097147021
C            3.25604301628460       -0.50144955082288        0.15039218113617
C            2.27944584024673       -1.43801396196838       -0.30866975047289
C            1.05737890310912       -0.80358179983891       -0.25484771435353
C           -0.14929142123664       -1.48462255099416       -0.49202070643399
C           -1.45170521393285       -1.15676349217091       -0.24359376198826
N           -2.40573640317939       -2.12782082220786       -0.21030604200552
C           -3.43870576987138       -1.56060299089724        0.37877847342694
N           -3.32756176019079       -0.26212123181689        0.70010200571663
C           -2.11250729872658        0.08569666520641        0.27338786389166
N           -1.77013203222369        1.33922542656489        0.17525915797005
C           -0.70034620989728        2.03684876023025       -0.04238542906711
N           -0.92878481310756        3.29085977648400       -0.50815680579386
C            0.66555774699572        1.73545731347154        0.26936271952705
C            1.37957279460853        0.57753835419608        0.20678139838828
N            2.71634283349224        0.66606112025777        0.46376552089752
H            5.15464284222287       -0.01532234120614        0.65568560841904
H            4.95282883714062       -1.64086202918360        0.07867852872886
H            2.47362712105239       -2.45145448046449       -0.60257078612307
H           -0.01726923838462       -2.52493037745532       -0.77283744406432
H           -4.34066370766504       -2.10735591949005        0.59096240733436
H           -1.88322318754632        3.58264965335543       -0.63081229912342
H           -0.18919668024229        3.96650692601093       -0.56443998739289
H            1.27039133095046        2.59464896788862        0.53657223601229
