23
 energy: -39.235181424479 gnorm: 0.000940858413 xtb: 6.6.1 (8d0f1dd)
N            4.39783828718376        0.91357670960456       -0.04278304251611
C            3.13369221079297        0.46209345916104       -0.01537129436242
C            2.72647614112104       -0.90376688265584       -0.00091670574899
C            1.34750935025390       -0.91837185063882       -0.00414175091846
C            0.63095971679206       -2.12946592047008       -0.00362183261159
C           -0.69624389611227       -2.47025735478620       -0.00323642371253
C           -1.89075343139493       -1.73479993615908        0.00089316283514
C           -2.19944137465980       -0.39776425301084       -0.00125360553380
N           -3.52602306604649       -0.09073196578964        0.00685877773884
C           -3.63376600116347        1.22645975269475        0.00891918204600
C           -2.39324790811998        1.87515866037439        0.00085207870180
C           -1.41824210755030        0.87675570492602       -0.00717181812367
N           -0.14120465128987        1.19938202646830       -0.01799390481979
C            0.96789567617743        0.54135347033443       -0.01866936421518
N            2.09711560289793        1.28792911486890       -0.02762737630976
H            5.17201080683349        0.28569619437821        0.07590146876840
H            4.54664529912677        1.90551100591741        0.01424982052515
H            3.38554041619529       -1.75233719942355        0.00972704261795
H            1.30081290294074       -2.98596743655239       -0.00470526657441
H           -0.86690498800705       -3.54169807178025       -0.00380467621279
H           -2.78754336460152       -2.34633598385211        0.00821110451440
H           -4.60632986248618        1.68797629353610        0.01508144770559
H           -2.20756963878356        2.93021071145469       -0.00021413329378
