24
 energy: -43.763591776830 gnorm: 0.000696644594 xtb: 6.6.1 (8d0f1dd)
N           -3.84582573343572       -2.38871861878427       -0.25210979825710
C           -2.89653708621655       -1.75775626231297       -0.12573802480546
C           -1.69508600579698       -1.02343640247822        0.05523460282008
C           -0.62137050321467       -1.86966759500914        0.45602579559313
N            0.64976299236287       -1.78015807848155        0.29513875508452
C            1.53095565199936       -0.85440798024005        0.03807646307737
N            2.77539661264216       -1.17964812822177       -0.32740694462643
C            3.48540102229640       -0.05371210367768       -0.16370213158611
N            4.78966046203813        0.01394780086132       -0.43242624492018
N            2.79391269284190        1.01723277700032        0.28963000249242
C            1.52592287527735        0.60299563464251        0.35209254738986
C            0.49780807874227        1.52820641389066        0.49896423841204
C           -0.85736141023508        1.46663658000493        0.24608909488019
C           -1.61995286893295        2.64070651696621        0.16236044877439
C           -2.90640287980863        2.33638979348705       -0.27646983400766
C           -3.01404683060723        0.96502939920205       -0.45445489781963
C           -1.79484557601309        0.35178438513990       -0.10989004490632
H           -0.93197924634956       -2.83199337741882        0.86173121063373
H            5.29207180069336        0.85789115560921       -0.22599058274863
H            5.26712350279761       -0.81438549808641       -0.73732063419816
H            0.87574855540901        2.53167514199203        0.66847321548114
H           -1.24298955761799        3.62516785737859        0.36786932158128
H           -3.69055392718985        3.05043863651665       -0.45189988546371
H           -3.89422368248139        0.43733387071858       -0.77099031348011
