27
 energy: -42.112127865921 gnorm: 0.000501345916 xtb: 6.6.1 (8d0f1dd)
N           -1.00098741427031        3.54202797291182       -0.09189648300712
C           -0.74378655495175        2.17478726208245       -0.02514854854945
C           -1.89720627013658        1.37832129552180       -0.04289358423087
C           -2.17653547818799        0.02861361883754       -0.03133009045724
C           -3.51477173999780       -0.41342963725821       -0.05098066331231
C           -3.55853486164258       -1.79996887564330       -0.01380420752289
C           -2.26081875767677       -2.29075663173280        0.03008456740678
C           -1.35004009963615       -1.21658818362229        0.01807617337880
N           -0.07302042844169       -1.48461165586587        0.04256504644444
C            1.02548707977285       -0.77984568990013        0.02623236827783
C            2.25265920071192       -1.46521998410558        0.04037114909993
C            3.30381191069383       -0.54824037521940        0.00016563364295
N            4.63515271048594       -0.84675835779172        0.05310180162745
C            2.75512664684688        0.74263699388148       -0.02992317778388
C            1.35766215586573        0.67611685674770       -0.01546118486133
C            0.61060742419144        1.84361336366362       -0.02305514283456
H           -1.91973614753377        3.84871035036755        0.18177572450940
H           -0.25556363121678        4.16122166468310        0.18017627585759
H           -2.80477953455394        1.97986318945987       -0.07246818359515
H           -4.36960524561388        0.23935897040272       -0.08880474558843
H           -4.45462717639652       -2.39572195648819       -0.01834763467667
H           -1.96364404950168       -3.32140272830959        0.06577115987306
H            2.34081397170107       -2.53426545106309        0.07223153625291
H            4.90234533670606       -1.79334657860724       -0.15843825473133
H            5.28346980378918       -0.13204000411228       -0.23220131304078
H            3.32865867882890        1.65302114361939       -0.06201877998270
H            1.24747821736442        2.72692826854071       -0.03417626069644
