28
 energy: -56.240153059827 gnorm: 0.000992078221 xtb: 6.6.1 (8d0f1dd)
N           -5.59624532596606        0.09384907389731        0.00243364651887
C           -4.58198447632799       -0.44787206537957        0.00104039618349
C           -3.32795567501748       -1.05686487638912       -0.00179653034138
C           -3.04914178514946       -2.43690626411908       -0.00829476722570
N           -1.75775547928504       -2.69582196861952       -0.00900761496784
C           -1.08920796325992       -1.52291577459287       -0.00309275176727
N            0.19900924895490       -1.59242537805293       -0.00256085732624
C            1.17930909822353       -0.72525554854540        0.00210507947892
C            2.51176302209011       -1.16907780502686        0.00168526444590
C            3.01083547658250       -2.46963362462657       -0.00226771453146
N            3.51229246483278       -3.50357726084129       -0.01030163150856
C            3.33336296073513        0.00319994486895        0.00725521935018
N            4.66379579765600        0.03490258674180        0.00861449274035
N            2.59508501317407        1.11374427387290        0.01141605678642
C            1.29509905490626        0.76678033718678        0.00883151045335
C            0.40428518145990        1.83807908056454        0.01297493887264
C            1.11350461545598        3.07420975274769        0.02084708265257
N            1.62621849426407        4.10086483836189        0.02193231278711
C           -1.01099141811997        1.97061421371263        0.01271539836697
N           -1.47826337237102        3.24430138050013        0.01803029032924
C           -2.01770412103779        0.98987442912795        0.00791579347622
C           -2.07909604324332       -0.38548619783445        0.00174495448503
H           -3.77197151850985       -3.23355043480502       -0.01229621802071
H            5.12811948781016        0.92705979430751        0.01283665129927
H            5.19530965979089       -0.81872123186190        0.00537264574361
H           -2.46726088595887        3.42228099201470        0.01824500955877
H           -0.84414954093629        4.02555178423499        0.02180987394197
H           -3.01076055465104        1.43798719075507        0.00946426591804
