25
 energy: -53.068749784350 gnorm: 0.000898346392 xtb: 6.6.1 (8d0f1dd)
N           -3.72825618853162       -2.50089671856364        0.37303096017171
C           -2.74694266334996       -1.91500499559314        0.29012236434443
C           -1.48416340732084       -1.26711802747380        0.27251217301162
C           -0.43925475343037       -2.11904761429159        0.72604697853026
N            0.80147558453607       -2.12495671266799        0.40564699965287
C            1.73554404112130       -1.33586462481075       -0.00775935439639
N            2.89064595946013       -1.77303238054491       -0.50896865521510
C            3.72602851888275       -0.72885641358939       -0.41123825920622
N            4.99232740882862       -0.77580673598891       -0.79211162569826
N            3.18816087547795        0.40816410128962        0.11699452915901
C            1.91090307325297        0.13082684945952        0.29271483375865
C            0.94908510956386        1.13369940781194        0.48336292266724
C            1.50751961257188        2.42567652401274        0.70528763384408
N            1.98482592867034        3.44002480896980        0.93670031339383
C           -0.42099023987165        1.13714485075831        0.22348058222546
N           -0.98805347493050        2.34593798875923        0.09030187897994
C           -2.23411970126960        2.18161629882986       -0.33107109263307
C           -2.58526846944214        0.82847979703207       -0.45127214894344
C           -3.82433848732083        0.37007387343382       -0.91159728048156
N           -4.84607965978282        0.06600251839335       -1.33645446808414
C           -1.44531590758364        0.08063500513124       -0.05999159640059
H           -0.74913702410772       -2.97694179015485        1.31900727612461
H            5.57470690395911        0.03239626873490       -0.65536199674477
H            5.35546340598095       -1.62160993334103       -1.19609961574959
H           -2.85675387286459        3.03012296510468       -0.54880987170994
