21
 energy: -44.589530383169 gnorm: 0.000556803842 xtb: 6.6.1 (8d0f1dd)
N           -4.04381763944302        1.28951255012306       -1.62281870669370
C           -3.32285689293172        0.65968684120047       -0.98886632298624
C           -2.45778131370481       -0.13162415165266       -0.23163834828658
C           -2.81898910145929       -1.13859399954941        0.68758756938646
N           -1.79809899241799       -1.74852532817024        1.28250066864035
C           -0.69315668765322       -1.28308337487887        0.70189721878510
N            0.40258172647267       -1.91912572235640        0.55982465460152
C            1.54602853244122       -1.73379686577655       -0.09169157640788
N            1.96175617394623       -2.76698649533144       -0.84480837138647
N            2.41501793020058       -0.75190419533725        0.08418714349160
C            2.24121271259882        0.52491575165656        0.11171910427451
N            3.18956512361593        1.40854065741991        0.39791465953059
C            2.58095903838888        2.58954340686559        0.44661318397086
N            1.26490740511545        2.60384904609851        0.24924277526145
C            0.93119368756213        1.34641246598327       -0.04166216933188
N           -0.28337206567205        0.98713900747071       -0.27496708261813
C           -1.05430195089520       -0.01490712429049       -0.11592299345356
H           -3.82773385287757       -1.41420302756999        0.94230686255934
H            2.89887972836099       -2.74885522669661       -1.21029485359221
H            1.44772120982528       -3.63116667751776       -0.82688187979168
H            3.12660522552901        3.49515433231493        0.63978972423977
