20
 energy: -40.858708369416 gnorm: 0.000924622589 xtb: 6.6.1 (8d0f1dd)
N           -4.77962064251042       -1.03009873014858       -0.19914443771454
C           -3.81668149939393       -0.40779735051224       -0.13042317081130
C           -2.63210428788871        0.32702190028915       -0.05194108767009
C           -2.47149653246915        1.71042832549785       -0.20541472560880
N           -1.20508698556770        2.09395633027046       -0.06959670979607
C           -0.47836509671240        1.00603777914338        0.21366994227198
N            0.78933962710009        1.15373629960945        0.51230948669625
C            1.91765854410589        0.64474744267280        0.46776278364344
N            3.14817295561348        1.06283623635212        0.68853980865094
C            3.92628918888376        0.38440610017293       -0.15067297610647
N            3.38249009787989       -0.60040673142277       -0.86490421557923
C            2.15196767132642       -0.74300921127572       -0.41240850697067
N            1.37928582829765       -1.70007492832490       -0.26237544467105
C            0.22984753841972       -2.15811670581322        0.16651703316455
C           -1.01571887632974       -1.55217650062180        0.16651826727529
C           -1.33296175218029       -0.19975708912842        0.17696478514698
H           -3.23943822179426        2.43254702202110       -0.41321906381664
H            4.97009777513061        0.62324213842342       -0.24958544746296
H            0.28430125218076       -3.19862106054058        0.46965560821522
H           -1.86817403949157       -2.22218945776414        0.19735676024311
