26
 energy: -52.785139213883 gnorm: 0.000813873015 xtb: 6.6.1 (8d0f1dd)
N            4.76784761526229        1.87878240072029        1.28656126174176
C            4.11152948428461        1.00870207135677        0.92431468684318
C            3.30950269866211       -0.04719637616135        0.48906052562312
C            3.68213160172645       -1.41070413836533        0.36196806078451
N            2.72316981942061       -2.17482593197462       -0.11202171014687
C            1.63130735930313       -1.40060126673201       -0.29894377663924
N            0.49920108403053       -1.95312347496211       -0.57276784354803
C           -0.75623848487838       -1.61261446569995       -0.45060956082724
C           -1.77276352234690       -2.54891125587128       -0.66027422840178
C           -2.96803931104820       -2.08486055159109       -0.10743334140268
C           -2.77280870425255       -0.82303170286086        0.44695831671240
C           -3.73792257194167       -0.11511533651668        1.16870286471441
N           -4.55512864008281        0.40519412337479        1.78593970077634
C           -1.43577227754622       -0.39475882534985        0.12751489677350
C           -1.08976598813638        0.92372858093403        0.03397029386394
C           -2.01700443473722        1.92636429198338        0.40957921635325
N           -2.69652197103385        2.81874316361964        0.65146388404848
C            0.14230448310165        1.50631514825160       -0.52120882526669
N           -0.00458902820518        2.62038874880477       -1.26431557960792
N            1.34282478020789        1.13201653238758       -0.24762800744894
C            1.99621717551312        0.03455303509537        0.00439657164622
H            4.64650129636989       -1.82303355738067        0.60063978408528
H           -1.61437144287906       -3.51077243770143       -1.10779128502632
H           -3.89661805151532       -2.62574910740713       -0.07734506851066
H            0.82776401261005        3.11306940587310       -1.54523213719141
H           -0.88921613818810        3.09856592266836       -1.30890952224708
