29
 energy: -55.184537652768 gnorm: 0.000769057875 xtb: 6.6.1 (8d0f1dd)
N           -2.94061556151012        2.63654779501627        0.73916264872884
C           -2.05383138398896        1.98836263839117        0.39997471452046
C           -0.88968329889579        1.23790332394108        0.09191224532160
C            0.25534642295403        2.04909126228876       -0.09717290571727
N            0.02546275266030        3.39228715772809       -0.12668071977405
C            1.60440776496141        1.71523798960390       -0.30704563880105
C            2.38963937936706        0.59597806615641       -0.17200017014902
N            3.72310262046039        0.74975603634184       -0.32903648983827
C            4.24638201218965       -0.44521557829806       -0.05357707283442
N            5.55790097955143       -0.69077822880882       -0.07653375211654
N            3.35184062183195       -1.41456095481474        0.26493694319764
C            2.16098568818824       -0.82672764079953        0.18743709990283
C            1.02041869826220       -1.60504882440784        0.34465252906043
C           -0.32487578198227       -1.36663376028719        0.18434173654498
N           -1.11804721886221       -2.46038139958590        0.20346374812669
C           -2.36886568017746       -2.06640794086638        0.00135563024543
N           -3.39430172491361       -2.91790051211387       -0.08867589578325
C           -2.45928222262526       -0.63856067924720       -0.10363688300700
C           -3.66994366226634       -0.01512678510731       -0.39746361266403
N           -4.71907239041329        0.35793308619893       -0.68738425500449
C           -1.15276330115280       -0.14514501149319        0.01312906600992
H           -0.89639699557931        3.76280383649079        0.02837790362686
H            0.79757568303731        4.03018620132030       -0.19259309640870
H            2.21893208923769        2.57647081792531       -0.55436844923166
H            6.19110111518688        0.03432849460274       -0.35988103294131
H            5.88314213793021       -1.62010207150652        0.11663105563407
H            1.24390331304627       -2.64808694258713        0.53711815571032
H           -4.32307998649791       -2.57490964141318       -0.26216631652794
H           -3.21706753229822       -3.90438602037241       -0.02450908513235
