23
 energy: -44.023280042575 gnorm: 0.000634077924 xtb: 6.6.1 (8d0f1dd)
N           -3.01815565969934       -3.26167886468825       -0.00503546589366
C           -2.80409285287825       -2.13290108047422       -0.00226733461261
C           -2.55612940897550       -0.75966366204506       -0.00343530688288
C           -3.49933736267198        0.26876484744815       -0.00263339176326
N           -2.95167735858439        1.48215185321176       -0.00195288602962
C           -1.62011899387461        1.35519877720571       -0.00414586648587
N           -0.93343198856224        2.46700183089364       -0.00484145803219
C            0.33504132767058        2.77667570697224       -0.00571984209059
C            1.54325042968827        2.07395612732348       -0.00265705725062
C            1.88027225543455        0.73017773277883       -0.00130056041919
N            3.18459471787885        0.42590999645917        0.00034887014932
C            3.30220868187566       -0.91472134368039       -0.00008655355349
N            4.50468371107999       -1.49629828010722        0.00046151632652
C            2.04146849290088       -1.55392763945966       -0.00118953663973
C            1.08706247382483       -0.54593673032479       -0.00225248818995
N           -0.19555006234470       -0.84501480238119       -0.00299911045133
C           -1.27368626480666       -0.12973868662679       -0.00484248265202
H           -4.56973187124560        0.15753061112605       -0.00221702075586
H            0.46413830342461        3.85894204743378       -0.00921688660444
H            2.42433157763009        2.70563069198396       -0.00256257649436
H            5.32377571256614       -0.91378920472652        0.00190357239205
H            4.59634097121447       -2.49593327745600        0.00155011831841
H            1.84655904405483       -2.60701633436616       -0.00148037628460
