24
 energy: -38.954895791784 gnorm: 0.000719328042 xtb: 6.6.1 (8d0f1dd)
N           -0.21389718267997       -3.41784159138259       -0.19103831787606
C           -0.08978510479580       -2.05254912081525       -0.04974376550939
C            1.23110835876199       -1.58527696293358        0.09745977667395
C            1.81465479139811       -0.33555311402105        0.11649701549349
C            3.21450751574292       -0.17074452076032        0.24751912841095
C            3.47535978711745        1.17669089278160        0.08849316851535
N            2.36276535726151        1.88806606932845       -0.12664016577173
C            1.32209334570461        1.03693196695745       -0.10507146731751
C            0.06025816905349        1.59842237525111       -0.24719290599705
C           -1.22286737082485        1.10024281800333       -0.14963120980545
C           -2.33938247353919        1.94601616730947       -0.15236603947843
C           -3.49016505719571        1.21301995791545        0.14665624574758
C           -3.15027144340810       -0.11583941005023        0.31799050722833
C           -1.75989507846010       -0.27396399175471        0.10996227675683
N           -1.26454458720758       -1.47471605113622        0.07432934420011
H            0.56240679086550       -3.95931772790311       -0.52717531630247
H           -1.13984925490616       -3.75719900295286       -0.38749815121860
H            1.94778884681035       -2.39487193349440        0.20767219580680
H            3.92740140601111       -0.95395076759473        0.42161393736079
H            4.43083074848356        1.66988052340700        0.11967943307100
H            0.11873845016931        2.67352739004082       -0.39013624604142
H           -2.30193290605237        3.00446483176272       -0.33652413353756
H           -4.48185240195942        1.62176699922522        0.22611878642134
H           -3.81527025815070       -0.92749224978360        0.54287944836914
