29
 energy: -50.381599815261 gnorm: 0.000678266582 xtb: 6.6.1 (8d0f1dd)
N            5.13193379327437        0.84900777575690        0.21963909490545
C            4.00194512914413        0.64368566730005        0.13533191153412
C            2.63684359949065        0.38580438609737        0.05350841974666
C            1.61211992721541        1.33631260212542        0.05430785717120
N            1.81028743931715        2.67404831510599        0.06903741495465
C            0.34344307901707        0.65724207723890        0.00779781963330
C           -0.82522564756868        1.35621306792167       -0.17311867798414
C           -2.18260324490517        1.00697132079527       -0.16667848966036
C           -3.19339845459584        1.96743889280581       -0.36683283938935
N           -4.41902678710160        1.49544852452079       -0.12616215798317
C           -4.25743414627077        0.23938180644696        0.28535445658282
C           -2.90793413541246       -0.16287014550065        0.27552971457379
C           -2.45711371571663       -1.41094901989197        0.71270490773139
N           -1.39428380412748       -2.05779997106558        0.38129432685938
C           -0.24104393674696       -1.85784625129886       -0.20742028688947
N            0.22054612022901       -2.95283883888348       -0.88705480157116
C            0.65296637046469       -0.77525494536692       -0.02417381695768
C            2.04725755556759       -0.90823013513834       -0.02609139119336
N            2.77943227401434       -2.05930978341366       -0.09063178511820
H            2.74420953207237        3.01199160571443        0.22750348517509
H            1.04807895914624        3.29263108201558        0.28158265601597
H           -0.68701917363266        2.42170393504144       -0.33779876114821
H           -3.05450153722114        2.99060792246634       -0.67046076436610
H           -5.10572664188485       -0.36913976726094        0.54461202912313
H           -3.13199472350785       -1.97730568909999        1.35220553484205
H           -0.45940826576489       -3.67035467265222       -1.08349931150917
H            0.95344822920806       -2.81623542891308       -1.56364522991224
H            3.74783771571313       -1.97290472796262        0.17933063882061
H            2.32149589848280       -2.90792687120455        0.20406458131287
