20
 energy: -40.844212580610 gnorm: 0.000864013717 xtb: 6.6.1 (8d0f1dd)
N            3.56344153060218       -2.27542276162326       -0.43225693523241
C            2.58021479035735       -1.70324886097836       -0.29345576856087
C            1.33820120611751       -1.04122065678010       -0.11058124716449
C            0.28033924100774       -1.88583537496660        0.32291498306384
N           -0.99298524624735       -1.75381996303887        0.23843688062057
C           -1.92313421935282       -0.86314527981025        0.15765670054817
N           -3.16570697006454       -1.19362873567773       -0.18986529650300
C           -3.88673063275807       -0.07805759985151       -0.28879724432924
C           -3.13871472735832        1.07776557340171       -0.06753654031579
C           -1.84956061880216        0.65414259869824        0.27951676907481
N           -0.83171252948804        1.44787222805352        0.38959541879219
C            0.44138106236125        1.42067881515339        0.29953596458196
N            1.19942255873408        2.52471748115139        0.46281243921921
C            2.37986491017509        2.21733392061805       -0.03805644685150
N            2.53303266679979        0.96982061997258       -0.50874291406619
C            1.39589747203921        0.34304550191487       -0.23406032385378
H            0.59408876068702       -2.87101911168020        0.66438520888647
H           -4.93839417092744       -0.14155053348145       -0.50455120098258
H           -3.47999413730389        2.09351461105371       -0.08336417397968
H            3.18341397052444        2.92977135447077       -0.07820724834882
