30
 energy: -49.288221724768 gnorm: 0.000439337609 xtb: 6.6.1 (8d0f1dd)
N            2.35074348136320        2.68608314249812        0.60575440148396
C            1.42521297281884        1.72818043533598        0.32731632124159
C            0.10488921767647        2.10044459204145        0.51895343943737
C           -1.14222819260829        1.52697321619781        0.23474646345773
N           -2.16859310516090        2.42393042403343        0.21638497753134
C           -1.51131004385540        0.18345207593660       -0.01188518724216
C           -2.82228070975312       -0.20266649613058       -0.39649592997180
N           -3.85988145460910        0.60450787316744       -0.85598750134105
N           -3.03248010180659       -1.51777509464895       -0.27158995585051
C           -1.90724529327623       -2.02990231149985        0.21863070619906
C           -0.89069703834343       -1.07081424082307        0.37122628158409
C            0.43552040861350       -1.46265012927698        0.64438646485514
N            0.62313403174359       -2.61501628948075        1.31782659376093
C            1.60041639288298       -0.86012044384384        0.11252912138742
C            2.67577000912681       -1.62276782877177       -0.38478102113723
N            3.61728106515204       -0.86652178543179       -0.94055976576682
C            3.23826599887204        0.39949474728236       -0.75049291296941
C            1.98258188591155        0.49879475679068       -0.13140928579534
H            2.07073841116374        3.63974462715732        0.75536640616596
H            3.31842026515368        2.49397130731799        0.41881202022096
H            0.01388921687604        3.13399143044978        0.85003562228331
H           -1.99479792180226        3.36315446239628        0.53042493099354
H           -3.11290848081049        2.07301659762945        0.27083610361816
H           -4.64124213572901        0.02208031904913       -1.13294363019671
H           -3.58635621115325        1.23466710637848       -1.60033476287406
H           -1.83664038899033       -3.09578498785955        0.34961187422713
H            1.54560832866296       -3.01640780990701        1.34080107630614
H           -0.16367907903621       -3.19739807247733        1.54800799173570
H            2.74346309258706       -2.69572803753238       -0.44703369332607
H            3.85091122053018        1.19704887482143       -1.13639115631855
