23
 energy: -44.817899593872 gnorm: 0.000985104897 xtb: 6.6.1 (8d0f1dd)
N           -4.58182645295961        1.43126147304388       -0.39957321736320
C           -3.48336651100137        1.11933337508943       -0.30724339484921
C           -2.11174415938630        0.76378938263348       -0.19989722137384
C           -1.24230815338917        1.87119955454245       -0.27689474619134
N           -0.03838302050436        2.04131856318930        0.17495774458822
C            1.05652864194752        1.45183002485839        0.43222628005017
N            2.15108452432057        1.99950866986636        0.95763429742563
C            3.19944401813006        1.29796590979054        0.53647209240862
C            2.86368892708793        0.15252129503656       -0.20004390550627
C            3.72786990933290       -0.75183579312068       -0.81582485306691
N            4.44853440885067       -1.49299102877339       -1.31662679829157
C            1.44657803944326        0.06604986587008       -0.14134536349062
N            0.70104580881729       -0.95705262682198       -0.15260513992753
C           -0.54006784560351       -1.32479617457214        0.00506435754189
C           -0.85361210601675       -2.65721343938037        0.30762658754951
C           -2.23927680427038       -2.80649802333597        0.33229826683966
C           -2.83900044554188       -1.57718584579513        0.08872469511810
C           -1.84485548932200       -0.59864944568766       -0.08594217991624
H           -1.67467032193256        2.78330719774764       -0.68336970850898
H            4.19463991129301        1.61849757165591        0.78700817716409
H           -0.12155238531076       -3.42602122259213        0.46222051732826
H           -2.76146973729579       -3.72853834274674        0.50978193591860
H           -3.89589810268450       -1.39032877899595        0.03376555065402
