24
 energy: -49.328958120691 gnorm: 0.000958633400 xtb: 6.6.1 (8d0f1dd)
N            4.68704822840372        2.23620851127805        0.15495399882312
C            4.05006966330446        1.28887002953238        0.03353585445243
C            3.28585693187144        0.13173940635794       -0.12599115581847
C            3.73088465593092       -1.11988167788565       -0.62048817404274
N            2.78447952085419       -2.03428429721914       -0.64151458287947
C            1.66129794624479       -1.48362587140397       -0.12931146840548
N            0.63805472574888       -2.22103307825632        0.13923067213784
C           -0.59105730456736       -2.10359833941086        0.49583545207043
C           -1.53137164499092       -1.07272835107197        0.20369043330774
C           -2.86900083629896       -1.54585258960496        0.27553547097095
N           -3.91842195617492       -1.98726022889126        0.40486216806845
C           -1.34329678327564        0.28257832759110       -0.03059190971930
C           -2.40264163948949        1.17756513223435       -0.30047234734148
C           -3.65187794886410        0.86796563503529       -0.85255664136060
N           -4.66988245888186        0.67775191414761       -1.34757242718779
C           -1.99295180446110        2.49516907962764        0.01444087129610
C           -0.67730846512379        2.48201306700819        0.41368475526594
C           -0.16143990853786        1.16424816421866        0.31842251918257
N            1.11422286327943        0.97629051094056        0.38514432301655
C            1.91451703704731       -0.03393008720750        0.16357193213390
H            4.72742200594654       -1.35544785454286       -0.94836399189823
H           -1.00694333284813       -3.00083577876417        0.94740504504965
H           -2.62655072680895        3.35922191884538       -0.07150093138899
H           -0.07925184230928        3.32676735064108        0.69561460986615
