26
 energy: -53.580615717014 gnorm: 0.000870023181 xtb: 6.6.1 (8d0f1dd)
N            4.91575028413164        1.43760235352285        0.43011995013187
C            4.19238368707285        0.57622116117385        0.20113854837181
C            3.30947361469186       -0.46819186998313       -0.07895724186642
C            3.63651870686418       -1.71809662702925       -0.67895985157682
N            2.60350587937605       -2.51777120201674       -0.78203745307882
C            1.53728537713192       -1.88244155355146       -0.23006489565755
N            0.49206116030760       -2.55838901793766        0.10160177082004
C           -0.70910545107134       -2.38456932733762        0.52974592571024
C           -1.62163306522527       -1.33098398505394        0.26820933268430
C           -2.96548059885823       -1.77039595070937        0.41542611105951
N           -4.00711547211299       -2.19931419303444        0.62451188649252
C           -1.40646580528489        0.01394115133521       -0.02971666816793
C           -2.47671992277328        0.89888463250781       -0.34033495605381
C           -3.77773674246106        0.56302463979232       -0.74646276615533
N           -4.83908549291463        0.37265501504064       -1.13777904603509
C           -2.03358109904301        2.22138615623010       -0.24525757781553
C           -0.68424804517599        2.21041289926125        0.10607725291570
C            0.10969735452701        3.35146829795716        0.28808904772166
N            0.75896305506223        4.28516674565363        0.43994163505126
C           -0.21832830245969        0.86545194852633        0.19253593021294
C            1.13697186908614        0.63300760474843        0.34467213118986
C            1.91992943791998       -0.49598601401809        0.14003205509261
H            4.60845019138070       -2.01941753357390       -1.02580653422270
H           -1.13045100140557       -3.26142058814639        1.01651184391044
H           -2.63315747062606        3.09546629398370       -0.42104703877951
H            1.71857760747161        1.54342400175534        0.47898391174482
