22
 energy: -40.296166520196 gnorm: 0.000309411685 xtb: 6.6.1 (8d0f1dd)
N           -3.27067553682899        2.75032474741706        0.04399208627193
C           -2.83283263709430        1.68841366923875        0.03147981854007
C           -2.32011546829916        0.39067823755025        0.01604363074648
C           -3.05791142020150       -0.80976057376510        0.00668252930363
N           -2.28772887649601       -1.88016047004567       -0.00740319160916
C           -0.99592246452988       -1.48482256636086       -0.00855422430678
N           -0.10953649830968       -2.44396099670676       -0.02203604182523
C            1.19248200557267       -2.50397369467250       -0.02792124607016
C            2.24122397819377       -1.57046497112745       -0.02245370161010
C            2.31210405111499       -0.19035338905166       -0.00849374636505
C            3.54680304567405        0.47583200684693       -0.00656107601694
C            3.35001436760716        1.85740113904521        0.00845593853259
C            1.99065383220930        2.12104078160363        0.01661647656109
C            1.27604837720284        0.90188278662493        0.00690872986320
N           -0.01988156896980        0.93732833338833        0.01247170761616
C           -0.95167849067511        0.01614847687964        0.00670524287382
H           -4.12965875289664       -0.90152873954681        0.01006186211963
H            1.53220488287974       -3.53889634709853       -0.04002296231319
H            3.21843750451514       -2.04450392952506       -0.03126234114220
H            4.50289830203589       -0.01665980323843       -0.01545260970815
H            4.13219493484771        2.59484282875548        0.01291632095034
H            1.51527363354794        3.08303329188797        0.02843230668773
