31
 energy: -64.985375164707 gnorm: 0.000798422225 xtb: 6.6.1 (8d0f1dd)
N           -5.54812648928577        0.52058330059663        1.10452363840071
C           -4.53394713702647        0.75770569442760        0.62032930146506
C           -3.33753917092010        1.13205053900860        0.00442839570833
C           -3.20465160243107        2.27376904101736       -0.81971734105028
N           -1.97889956957418        2.46074798208750       -1.26791461909706
C           -1.20770148009626        1.49168717694975       -0.73968244137663
N            0.06487975796070        1.65421852428141       -0.67843965151497
C            1.10355604427711        1.01286726575423       -0.23119781212846
C            2.28579773977256        1.70280762476780        0.10801462828665
C            2.45305150836222        3.08606909540803        0.21555935714211
N            2.65719282351799        4.20958516225683        0.33560384499643
C            3.31659503019095        0.76021478512367        0.33727812296276
N            4.57029286720360        1.03072227664520        0.69229308372032
C            2.77919454937517       -0.54400964834922        0.11827111987169
C            3.58182596692781       -1.67456820021716        0.30511471181202
N            4.33669346429943       -2.51184544505882        0.52771724827627
C            1.40866082877874       -0.44047857645799       -0.16747067899854
C            0.57168398670195       -1.55250418145446       -0.35352239656341
C            1.28273292635631       -2.74057199123023       -0.67604792916750
N            1.80148239658895       -3.70134477981969       -1.02957696375238
C           -0.81833872801275       -1.76271737574572       -0.17649654730385
N           -1.24951818959322       -3.03440219533392       -0.35171957011139
C           -1.85050004007287       -0.85230239421326        0.24294621308922
C           -2.92710706175631       -1.52023682529262        0.88858648858341
N           -3.72765429848451       -2.10154447394629        1.46948985623375
C           -2.07852888166611        0.48754447130697       -0.02956156623047
H           -3.99590671213796        2.95317415010923       -1.08201727434590
H            5.23765663392259        0.28383610680653        0.80252553002125
H            4.86131879538320        1.98343607861199        0.83984418116664
H           -2.20952163380450       -3.27821775109617       -0.17074511336690
H           -0.59451339875495       -3.77677160524865       -0.53760545782981
