28
 energy: -45.849646022537 gnorm: 0.000832502577 xtb: 6.6.1 (8d0f1dd)
N            4.06002484831777       -1.21063705104855        0.22768504731956
C            3.04649912809899       -0.31167579809756        0.11760415563490
C            3.22001860125637        1.05639680247491       -0.08370177854242
C            1.96757145873737        1.64069040518162       -0.24663970538402
N            1.75470765342971        2.98132752243329       -0.38826688949200
C            0.94933758138911        0.63570982801951       -0.15482902608502
C           -0.38015773166968        0.98322000183910       -0.02077020059930
C           -1.56132340549321        0.25796781268343        0.10100184304902
C           -2.83209406281462        0.89220407438079        0.23062911030473
N           -3.08491227394180        2.22138483879711        0.39392476127606
N           -3.85818537601928        0.03051030992133        0.10268140727746
C           -3.30826977997475       -1.15783768684776       -0.13452422069159
C           -1.90311001815399       -1.13103819083304       -0.12904163901313
C           -1.11723772576624       -2.24989084904394       -0.42058182891872
N            0.10444515773007       -2.54121795023026       -0.11119776299377
C            1.18304476934000       -1.90975930302057        0.27794767002938
C            1.65342451105357       -0.62817646612136        0.05053315192952
H            3.84638590940604       -2.13663432878594        0.55826678034361
H            4.97464536958634       -0.85550632691952        0.44914563611365
H            4.16244593243452        1.57288861621869       -0.10766151910673
H            0.89205555654782        3.27722981846003       -0.81422912859834
H            2.55975107970475        3.54039271426318       -0.61802800136682
H           -0.54809628754027        2.05718536083554       -0.00729626300280
H           -4.04693119007447        2.43444868397411        0.60399185336984
H           -2.39713822202478        2.77898127795269        0.87264967938933
H           -3.92991184875027       -2.02584436066853       -0.26735902742769
H           -1.63776666281495       -3.07392726965201       -0.90792567293119
H            1.88659492410689       -2.59975969406659        0.74869872481682
