27
 energy: -46.128393393917 gnorm: 0.000913649167 xtb: 6.6.1 (8d0f1dd)
N            4.74638049897476        1.50140497162712        0.01706009880375
C            3.49688260157019        0.97884089452340       -0.02090507389872
C            3.17466957139557       -0.38197633238179       -0.04129543416463
C            1.78446106097707       -0.54952844457202       -0.02762758837911
C            1.24367767007471       -1.81654058343578       -0.02195171347475
C           -0.04523713477406       -2.37720864762838       -0.00881039346437
N           -0.05598455355405       -3.75597370733756       -0.04727667603106
C           -1.30983394497960       -1.79331439407172       -0.01548474502259
C           -1.79546640041327       -0.49826164298374       -0.02446553060984
N           -3.12989662469840       -0.34002627555730       -0.02895845702127
C           -3.32413547661651        0.99095554708040       -0.03255902479842
N           -4.55504277665108        1.52762636319658       -0.07891801118387
N           -2.22149830910378        1.74706597966173       -0.02321514584360
C           -1.19794660735839        0.87657774259530       -0.01806628696034
N            0.00969853719243        1.36414096598262       -0.00073792732375
C            1.21162434659702        0.85265830015060       -0.00246141150471
C            2.30175319792096        1.71774033925091        0.00880153233989
H            5.53076735429042        0.90654405255800       -0.18516404392886
H            4.85969803727180        2.48828398077932       -0.13379459989522
H            3.89092063437741       -1.18454903723715       -0.06450801113556
H            2.01632146348646       -2.58435268758477       -0.02945841479394
H            0.78804670951880       -4.25433812250407        0.17504485895308
H           -0.92081810366382       -4.23080260686789        0.14371963372884
H           -2.12635546327355       -2.51039971823629       -0.01763949309829
H           -4.63938514742686        2.51674842739636        0.07075976056856
H           -5.34316211740924        0.92515480590484        0.07407026545891
H            2.21821636767500        2.78686667759140        0.02905168527989
