26
 energy: -52.021591000723 gnorm: 0.000575863122 xtb: 6.6.1 (8d0f1dd)
N            2.59860339075656       -3.71582861128703       -0.81840463583182
C            2.57407694663127       -2.63693538724794       -0.42285224465644
C            2.54308401712023       -1.32364939981901        0.04294005892807
C            3.52718708963135       -0.68446027099754        0.82823963413465
N            3.22635407615303        0.56287999904754        1.14084936302721
C            2.05439988453328        0.85007601377079        0.53859035332062
N            1.68769960001571        2.07594726348330        0.38725091859373
C            0.61994090881232        2.63854459702378       -0.15053233993870
N            0.83982300635895        3.71870170331773       -0.92412439066802
N           -0.63607128365881        2.39005064540239        0.16803515271668
C           -1.32342471230574        1.30327548512845        0.27867811507330
N           -2.59571138270035        1.36017286608876        0.70365043415604
C           -3.16809566400780        0.19994686509520        0.40251314711564
N           -4.44929357982674       -0.05521772848756        0.65796133647039
C           -2.24487986093549       -0.72034263168034       -0.21810403867283
C           -2.57783843377064       -2.00930889447269       -0.61921349426904
N           -2.90652571306899       -3.06295636499405       -0.94350238620792
C           -1.00539124318196       -0.07420055030891       -0.23780056807094
C            0.20380459143999       -0.72735436724111       -0.47159115568427
C            1.48908785490440       -0.39190447160483       -0.09975202186952
H            4.44842579009601       -1.12481698330196        1.16734867202410
H            1.77649152055381        4.07798564481808       -0.99392473432716
H            0.06125671089587        4.31151879540770       -1.15527048394674
H           -5.00118165163212        0.64796346216757        1.11823939757848
H           -4.86213575098267       -0.93221650230635        0.39044175429257
H            0.09090392546844       -1.75150697660177       -0.82104148908806
