27
 energy: -51.724735489786 gnorm: 0.000553065110 xtb: 6.6.1 (8d0f1dd)
N           -5.36969154344050       -1.18179371159188       -0.02131149485158
C           -4.49942988141941       -0.43001331063211       -0.01353703322405
C           -3.41492020154589        0.44515564553436       -0.00423887421141
C           -3.44551694438228        1.84161079190699        0.01024780286075
N           -2.23193551068027        2.38032117314962        0.01768955999782
C           -1.32610813732049        1.39330096942966        0.00643576404886
N           -0.07648216018372        1.74976539921781        0.00554382988851
C            1.07234056894386        1.14695398903294        0.00064430540809
N            2.15483215865326        1.93558196001342       -0.00559606251897
C            3.24465843569187        1.16717562216053       -0.00222959947352
N            4.47357935983189        1.68575099835011       -0.00551374094656
C            2.90786442588729       -0.21996805514242        0.00486320463377
C            3.81751060431152       -1.27144100252373        0.00920359721760
N            4.57808195262512       -2.13546139445343        0.01171698585767
C            1.50185292316212       -0.29845755329819        0.00486207614873
C            0.86559385997685       -1.52712202302761        0.00220451333393
C           -0.45982805761989       -1.97135559378601       -0.00259068102167
N           -0.61086028877700       -3.32510262099966       -0.00447365034984
C           -1.67833298028460       -1.25688010668444       -0.00619558309280
C           -2.03836558998524        0.06443895786806       -0.00557969804835
H           -4.32206308863438        2.46511472771931        0.01524401586042
H            5.28618111214142        1.09470047653299       -0.00006995788669
H            4.57092751050942        2.68620049233710       -0.00928554167287
H            1.57645512385437       -2.35202305664966        0.00167821001178
H            0.18991740225845       -3.93059600741405        0.00119781659692
H           -1.52476298601222       -3.74049877763516       -0.00488907628073
H           -2.54039757006176       -1.92274143411455       -0.00815334598576
