26
 energy: -42.389711591931 gnorm: 0.000661703008 xtb: 6.6.1 (8d0f1dd)
N            0.97388137786431       -3.56013711414267       -0.08629344494577
C            0.73773937413779       -2.19589965742707       -0.02392413577061
C           -0.62251420732233       -1.85209164285673       -0.02781498192888
C           -1.35880644110664       -0.68627451036753       -0.01640211410544
C           -2.76055429367054       -0.74274521738170       -0.01981858255646
C           -3.29619110584369        0.54851061846939        0.00326156208444
N           -4.61443717765300        0.86972436550438       -0.04187790100694
C           -2.23131856015344        1.46417265637589        0.02100153166675
C           -1.01660225887703        0.77743328339486        0.01094003713207
N            0.09008074071737        1.47230156224111        0.02802786767101
C            1.35866157775542        1.20363777515116        0.01627027338890
N            2.19099589411163        2.26717582737166        0.03766674285116
C            3.43454996779662        1.80373580209993        0.00798814234560
C            3.49472878771238        0.41423889254744       -0.02804967569837
C            2.17357584126972       -0.05666281229852       -0.02226524657057
C            1.89188934128241       -1.41187922740947       -0.02937229916430
H            1.89708018732797       -3.88842186948388        0.14032312184322
H            0.22202658129228       -4.18180681154015        0.15715929095928
H           -1.26159938320407       -2.73370665095248       -0.04637765840169
H           -3.33904357362586       -1.64993894986945       -0.03815682384934
H           -4.88082830637848        1.81662565568612        0.16473556193381
H           -5.29381207878644        0.15147935550734        0.13941941851324
H           -2.31353707555217        2.53357649456291        0.03977672760306
H            4.26569014707544        2.48827185629447        0.01446729839635
H            4.38452377826722       -0.18746420092446       -0.05588844469442
H            2.79911260516304       -2.01451373005259       -0.04251805109599
