23
 energy: -44.024179060611 gnorm: 0.000590675947 xtb: 6.6.1 (8d0f1dd)
N           -4.51342440687823        0.63221076812554        1.32287605674686
C           -3.63907004510281        0.05131452968381        0.85250439648896
C           -2.56059252128751       -0.60934880345015        0.27144073725435
C           -2.55508762259637       -1.85616416814012       -0.36882965479052
N           -1.35864369216272       -2.21441435272059       -0.81102446184347
C           -0.48009092544208       -1.25492322000159       -0.46497722209289
N            0.78380211683498       -1.51128464523220       -0.51664621051157
C            1.88366798559393       -0.88908813090576       -0.21448167569208
C            3.08198508466243       -1.54957188293588        0.08580527311545
C            3.97924016743957       -0.57079906777341        0.49896066134240
N            3.46027639314945        0.66187570719785        0.51537290139643
C            2.19801540335633        0.57332748294791        0.09357969115176
N            1.46909815146087        1.63792954416419        0.00593788459543
C            0.22360001451987        1.96843786275614       -0.17780183763497
N            0.03014014601033        3.22741753461587       -0.62952882839095
C           -0.95996713361451        1.24292302925268        0.18453416213339
C           -1.23711155379276       -0.09127308403026        0.13383892154630
H           -3.40232439630445       -2.50397199431751       -0.50981216401118
H            3.26122155833689       -2.60086996540169       -0.01271984580817
H            5.00893638540632       -0.71191082655096        0.77766794596792
H            0.83741856820759        3.80005555683120       -0.80882046994731
H           -0.88764771264645        3.63227073156958       -0.67699084989815
H           -1.80077474725134        1.87796945451452        0.45043636228188
