24
 energy: -38.958207928259 gnorm: 0.000374873199 xtb: 6.6.1 (8d0f1dd)
N           -0.00176431883267        2.41254621123610        0.82997164641341
C           -0.00052764340010        1.15732019200966        0.35403042345996
C            1.27321074677137        0.59348820403794        0.09389709300352
C            2.40396219662061        1.38806973073759       -0.14257128412686
N            3.51467735867594        0.66974216961052       -0.36362648149748
C            3.16584521553468       -0.59643744993912       -0.23596138635857
C            1.77705172359491       -0.76676959122190        0.01668676319110
C            1.27064750942084       -2.04585324055792        0.20150620832732
C            0.00240951358246       -2.58936056026890        0.32564655610260
C           -1.26651448022007       -2.04783201122341        0.19986024915701
C           -1.77469220503267       -0.76953207259084        0.01449817272167
C           -3.16345091445579       -0.60136146561843       -0.23977597295537
N           -3.51413275025700        0.66428160687098       -0.36770014127890
C           -2.40481276301507        1.38433421123410       -0.14527220544690
C           -1.27308435868982        0.59151237490188        0.09243844321823
H            0.86429482935464        2.90543164383544        0.96084974416184
H           -0.86872445847727        2.90410652453104        0.95986230130129
H            2.45579307292606        2.45939240492351       -0.23806954234501
H            3.89054874886728       -1.38301926876452       -0.34623995998889
H            2.05904135869761       -2.79382279134415        0.20845361154000
H            0.00315699161936       -3.66444013742714        0.46719242204602
H           -2.05374338068415       -2.79703698807943        0.20574142336686
H           -3.88678651661432       -1.38907121720533       -0.35098492818341
H           -2.45822782688671        2.45558473011237       -0.24071173502953
