23
 energy: -44.821462343618 gnorm: 0.000569787596 xtb: 6.6.1 (8d0f1dd)
N           -5.00748171103656       -1.75723992761623       -0.00214222002898
C           -4.18931995837589       -0.95136904354397       -0.00031590248506
C           -3.17951899753871        0.01420561187025        0.00100451735386
C           -3.35332166317535        1.41554756516891        0.00390858467373
N           -2.20655135543485        2.06000634040653        0.00469835229625
C           -1.20312227744630        1.15686522489254        0.00238361588417
N            0.00014361783675        1.64059976276371        0.00274691495716
C            1.20339032001403        1.15682055596586        0.00119602174856
N            2.20685010802388        2.05992717589345        0.00239809974345
C            3.35359484798852        1.41542447483336        0.00066590274201
C            3.17973884766838        0.01408857679133       -0.00185434688763
C            4.18950043688114       -0.95152291981086       -0.00391042337687
N            5.00762273410568       -1.75742463340417       -0.00666888676779
C            1.78620988065744       -0.22491936826557       -0.00171058745207
C            1.27764210909715       -1.51651945070560       -0.00396987069258
C            0.00007102785016       -2.05915634198397       -0.00444950460269
C           -1.27747934360162       -1.51647360074181       -0.00285418466856
C           -1.78599832762437       -0.22485427415158       -0.00014204026375
H           -4.28964239922525        1.94431748637257        0.00543804368604
H            4.28993560640530        1.94416040290895        0.00127248363584
H            2.06244156592152       -2.26959793918524       -0.00580392645338
H            0.00004947159350       -3.14309988993445       -0.00654106823940
H           -2.06230574088356       -2.26952575152396       -0.00395411830253
