26
 energy: -46.425241563100 gnorm: 0.000608574948 xtb: 6.6.1 (8d0f1dd)
N           -4.66660883201224       -1.45544106241934       -0.47200190798628
C           -3.44876385572335       -0.91159383830461       -0.26209219011923
C           -2.39415803115582       -1.55023672061594        0.44397728432350
C           -1.26599692557561       -0.75153888818241        0.40708102005656
C            0.00412083584684       -1.22346044546903        0.72110972255574
C            1.25906555925258       -0.75949442641995        0.37377842652530
N            2.31459055940237       -1.59195834193941        0.38493159301690
C            3.27771192186726       -0.92926922714937       -0.27866297183672
N            4.46949963097883       -1.48625767798042       -0.53280387514194
N            2.97638118732866        0.31271442009306       -0.69756960234744
C            1.73509082241547        0.51960987385534       -0.25596308281530
N            1.22456914854882        1.71614002584804       -0.20568676321203
C            0.03485145271472        2.16093526432282        0.11934268933576
N            0.01575919629026        3.37252200876692        0.74049286949954
N           -1.15418256132094        1.71023474090332       -0.25441393956561
C           -1.70062162800545        0.53442818587871       -0.26341893678494
C           -3.00601858165769        0.32471941519281       -0.72567611835271
H           -5.38444801774125       -0.90766567856322       -0.91161757103000
H           -4.94033325424365       -2.27511930462019        0.03988380681478
H           -2.45115987744133       -2.53623551972140        0.86752335559059
H            0.02442551137895       -2.23497080093431        1.11381989856913
H            4.70713395533498       -2.34658602153596       -0.07396305276736
H            5.18162470271352       -0.91479936433778       -0.94903861562345
H            0.88231474454271        3.88176442643736        0.77467325229753
H           -0.84646162846360        3.88929571278775        0.72951870321390
H           -3.58894060457501        1.05001846920698       -1.25861910761673
