24
 energy: -44.541346104775 gnorm: 0.000698044892 xtb: 6.6.1 (8d0f1dd)
N            4.27054166270690        1.70284208769251       -0.19188026681786
C            3.17968859475249        1.35317202633824       -0.14977269538478
C            1.81311631968655        0.96316878751323       -0.13662828078721
C            0.95606827340374        2.05320855340485       -0.41225101855086
N           -0.28162753987461        2.25648684403710       -0.10718789032748
C           -1.35534357452040        1.58431506394669        0.14839698262531
N           -2.44840122861857        2.26432246453106        0.57019164243586
C           -3.48269757164103        1.45271475273737        0.46556054977444
C           -3.13202755462225        0.17566204178487       -0.00840308346414
C           -1.74422149464185        0.17695354937935       -0.15421517183125
C           -0.96662211230999       -0.98543377169954       -0.29557734163524
C           -1.76584662843581       -2.14484151572327       -0.52849139152626
N           -2.42806260633724       -3.05113676208589       -0.75980468975793
C            0.38503540692304       -1.25029681220726       -0.09551743219163
C            0.84655411935143       -2.57823986651602        0.02632323096762
C            2.19142884704234       -2.57654986072399        0.36786941020939
C            2.63680519818495       -1.25995469552605        0.43111634402983
C            1.57818239770567       -0.38761865981626        0.12530505714532
H            1.44904736124906        2.94039118975334       -0.80511142161239
H           -4.46807594965415        1.79204225381594        0.72951141765158
H           -3.80291427729480       -0.64072293350843       -0.19261216185717
H            0.23188972698533       -3.45133847774598       -0.08940740343450
H            2.79065328965656       -3.44873048641501        0.55270422406411
H            3.63921397530204       -0.94656471246661        0.65614071407456
