24
 energy: -42.970149595313 gnorm: 0.000785326391 xtb: 6.6.1 (8d0f1dd)
N           -4.55616554262201        0.84359356321424        0.36957255814179
C           -3.26485006162863        0.49983136882514        0.20505201911745
C           -2.29441645947781        1.31408459959930       -0.45173772346152
C           -1.06175385190995        0.69796981436443       -0.39806133646763
C            0.13142610162014        1.37211156934876       -0.66177657312880
C            1.42407851488693        1.09710266780520       -0.27527676018756
N            2.34518226431418        2.08653490276229       -0.22296288321650
C            3.34441055310071        1.58026101148379        0.48868861885168
N            3.22793784749988        0.31647824369770        0.89749907501686
C            2.05904958915591       -0.09242294801653        0.38652753643782
N            1.74929272715722       -1.35330571394724        0.31367225445469
C            0.67377937883994       -1.98199914068785       -0.09361348262007
N            0.88151166214247       -3.16289296587190       -0.72873632727552
N           -0.58856420573964       -1.72810508590953        0.22897664095121
C           -1.30952765560919       -0.65374400687681        0.23429918911219
C           -2.64915791804023       -0.66109641650840        0.65622806260408
H           -4.92615876286586        1.65602570695902       -0.09010225456538
H           -5.19372882964308        0.20896968066269        0.81567120005749
H           -2.49173740597004        2.29013294455171       -0.85591028339490
H            0.00609351953737        2.37967791565771       -1.04481678531341
H            4.21674288385356        2.16395599007994        0.72409398037347
H            1.82141152666364       -3.51963316245142       -0.74903438382011
H            0.11338013779380       -3.80721178396095       -0.79797637864586
H           -3.12362452205915       -1.48155681288119        1.15724250537861
