34
 energy: -52.152275198626 gnorm: 0.000445923340 xtb: 6.6.1 (8d0f1dd)
N           -2.92814754784947       -2.37668155846215        0.55558022279919
C           -1.85408259584666       -1.57191084471814        0.28252765274931
C           -0.62070233067986       -2.14066057154853        0.56262834467206
C            0.71636739362560       -1.82683127667973        0.28802934770101
N            1.55276966161268       -2.91830604825180        0.37584664239488
C            1.34385585027199       -0.61460135126461       -0.06636159251540
C            2.70272089539498       -0.54902536472899       -0.47539523100262
N            3.51438201936079       -1.61020602670155       -0.89245294168381
C            3.14788928782094        0.76460998335241       -0.39988651480162
C            2.11162496435566        1.55707066630314        0.08019577205820
N            2.21904277363922        2.94310865119395        0.25844901192911
C            0.95288599291133        0.75495891867815        0.25049681614703
C           -0.28864167872429        1.32806512273071        0.56960319290303
N           -0.26587166399411        2.49790264692705        1.25393597774247
C           -1.56038234724657        0.97335795062415        0.03631252788623
C           -2.44813528319079        1.97239490741615       -0.40074660402055
C           -3.56300206201073        1.37034503224980       -0.97123580202038
C           -3.43477451934548        0.00021593967838       -0.82184735793456
C           -2.19448701351361       -0.28556824168789       -0.21289809154755
H           -2.79585637378676       -3.36825813294601        0.65683774028577
H           -3.83891288128132       -2.05382900006612        0.28212993333208
H           -0.72560939909035       -3.14911693984675        0.96181476096722
H            1.18120081914446       -3.74682883935651        0.81002437610872
H            2.53241985056672       -2.73797685741625        0.52839256930989
H            3.02858925894524       -2.28363841896713       -1.47085123216321
H            4.35684721053547       -1.27704647704085       -1.34346711458275
H            4.12875504235718        1.11248074734422       -0.67445704243162
H            3.07467497786928        3.29259674194692       -0.15609339106576
H            1.41990301520334        3.45342672100462       -0.09921846638149
H            0.58703181458997        2.80848930174975        1.68556035877791
H           -1.13589591270202        2.94558642134119        1.47919740188290
H           -2.25246833437802        3.03166922207544       -0.39996000969043
H           -4.38211888624418        1.88250511867665       -1.44460135435911
H           -4.14526480281960       -0.72211069060998       -1.18909599434616
