25
 energy: -49.056315869175 gnorm: 0.000898067912 xtb: 6.6.1 (8d0f1dd)
N            4.62557500717782       -1.15428405716620        0.29224104199693
C            3.48662629635740       -1.05731739933956        0.20960031518604
C            2.06943791680526       -0.97414961795681        0.14880443079191
C            1.45236141048655       -2.21243365297010        0.42284454254835
N            0.30002057762157       -2.66328009273968        0.05163899632071
C           -0.87905491050680       -2.21862017845808       -0.22009345607222
N           -1.80659416189385       -3.08144967154791       -0.70290636522564
C           -2.98520515911662       -2.51624565251144       -0.54456923392496
C           -2.90824942939165       -1.22774053990706        0.02648692702878
C           -1.55235205623710       -0.94335351441828        0.16721103584878
C           -1.03005672353650        0.35282202647581        0.34535260616155
C           -2.04139592933594        1.26774279250607        0.76349847706593
N           -2.88392326285003        1.90122284282028        1.21210736352529
C            0.21896845857417        0.89125713413527        0.05314256421352
C            0.39629860423399        2.28964043641845       -0.15482888026853
C           -0.55878966183423        3.31465751743582       -0.12736537156829
N           -1.25553312605922        4.22637057750500       -0.16859212894769
C            1.72091151579779        2.53415306353033       -0.54728122538306
C            2.41444009766650        1.33710117590085       -0.54482856528663
C            1.55490115052713        0.28734470587837       -0.17314451141550
H            2.09581522476880       -2.97621493567656        0.85371298037854
H           -3.88046379565043       -3.03322481503146       -0.83949451556996
H           -3.73592872716281       -0.58721076926109        0.26109601343581
H            2.11330080315984        3.49970244193369       -0.80721757099640
H            3.45529740619750        1.21759408974422       -0.78101083374321
