33
 energy: -52.439882058086 gnorm: 0.000578643297 xtb: 6.6.1 (8d0f1dd)
N            3.56302127600033       -2.39862308663924       -0.55855682720613
C            2.96510281556990       -1.17811939101494       -0.34515609966585
C            3.63440444585038        0.03664578382568       -0.36549852873338
C            2.72815936084947        1.04645275796917       -0.04301682075872
N            3.07180841767684        2.39053698271917       -0.00037122951160
C            1.43751457193581        0.48233594117593        0.15465652879978
C            0.31343339217477        1.25355502487481        0.46635736687337
N            0.54346780697518        2.49739748848041        0.98466799971948
C           -1.04759266575135        1.00785314853123        0.12262207543205
C           -1.87157196316355        2.07137729457429       -0.26696566109438
N           -3.09561450461974        1.67738743080792       -0.63356961732703
C           -3.13424539783607        0.36076237229407       -0.42131304993518
N           -4.31715390129776       -0.33563143265426       -0.66006140858375
C           -1.89230124920066       -0.15627671631276        0.03868906319325
C           -1.71837607790980       -1.48600201477931        0.48588685470492
N           -2.87434513547467       -2.17554103220700        0.73856859117396
C           -0.55101001422820       -2.24529858260000        0.60337673515280
C            0.77697882429057       -2.03967199557167        0.27619393946293
C            1.58916274102694       -0.95746277335661       -0.02251624848975
H            4.47556060881406       -2.35475869591788       -0.98366924802348
H            2.97727764203139       -3.13393441227341       -0.92027989580887
H            4.67393279793880        0.18298940383156       -0.60040740722334
H            3.97438030315109        2.56934717170925       -0.42005374735321
H            2.35817032817287        3.01536996861727       -0.35170045805389
H            1.42888836709997        2.66604968424981        1.43211172620544
H           -0.25282443860795        3.01340937879339        1.31629513259579
H           -1.59568464194831        3.10480886259312       -0.38805354446501
H           -4.97880021408897        0.27231706445857       -1.12736039913701
H           -4.18270213367185       -1.20169168741271       -1.16767723495234
H           -3.71853941563850       -1.64422379483012        0.87939041517174
H           -2.80323315877392       -3.06973587123008        1.19378873131062
H           -0.75653485204470       -3.26596698430520        0.91824349650357
H            1.33590618819777       -2.97206072210196        0.29221846892386
