30
 energy: -60.466889233768 gnorm: 0.000534561006 xtb: 6.6.1 (8d0f1dd)
N            5.29818052925929        0.59224440059217        1.10055079706076
C            4.38792342663726       -0.02363068685270        0.76698185382984
C            3.29753042481490       -0.83089244076114        0.43009462543294
C            3.29938553807785       -2.25050552574771        0.51080555181963
N            2.14985907009251       -2.77548304721791        0.16930104671758
C            1.27709960799588       -1.76368280512583       -0.06402377588565
N            0.08359541246986       -2.09522141821535       -0.42427272465184
C           -1.08451544536622       -1.50106717503606       -0.44450924834440
C           -2.21198046615919       -2.26858532547903       -0.71437418343665
C           -3.37201410126302       -1.54518391922849       -0.37686407772599
N           -4.63574529191842       -1.96779931975240       -0.48089195629910
C           -2.97356920509452       -0.27198589079834        0.10624350935707
C           -3.94193608755532        0.65222431743449        0.50633691313643
N           -4.85428089669541        1.28946139011694        0.79685129854225
C           -1.56407698545661       -0.14884715811892       -0.00359920782761
C           -0.91007020134521        1.06235423813911        0.14833895445394
C           -1.68930621269728        2.12531492407407        0.68091662680727
N           -2.21913572251082        3.01701542316913        1.17194167495398
C            0.38794052766316        1.53039670661456       -0.26830080914442
N            0.41742497398576        2.83495880947132       -0.63968742623757
C            1.61866209239652        0.85013060002571       -0.27651266294461
C            2.71995047705648        1.64940444251661       -0.68503996888954
N            3.57309330631508        2.29869852917800       -1.09513090072183
C            1.98998355084660       -0.45675654509523        0.09147138179419
H            4.12809722499164       -2.86405760914470        0.81544895264688
H           -2.17746929059362       -3.28419115362598       -1.05702267242022
H           -4.84047984627389       -2.88244651096649       -0.84253919560819
H           -5.38981479327385       -1.37931268856028       -0.16649983623857
H           -0.40631109594739        3.40765599102663       -0.56144133449606
H            1.30043737994760        3.29046306886820       -0.80649641648122
