27
 energy: -57.301431733505 gnorm: 0.000929445439 xtb: 6.6.1 (8d0f1dd)
N           -5.23899256885501       -1.62533744300827       -1.02456094591408
C           -4.44375283459336       -0.82954445314743       -0.79637140673677
C           -3.47110364880943        0.13495799805097       -0.52383977311548
C           -3.61361824848765        1.54404024994849       -0.59690871409632
N           -2.52746022057373        2.19902963229030       -0.24536470900440
C           -1.58258860710684        1.29556795390051        0.07720612632138
N           -0.37280092544607        1.67382421756248        0.30695262622716
C            0.81126488659484        1.14286852803678        0.26275027214236
C            1.98073370960753        1.91825578799309        0.44601399226679
C            2.02293282368746        3.20398385006026        0.99837931807548
N            2.08811492552818        4.24970012460260        1.46578845077138
C            3.08695730878981        1.22744728271430       -0.08606748123620
C            2.67929022692764       -0.00502892586501       -0.57479038966083
C            3.50393097939722       -0.89992387436272       -1.26617672884555
N            4.20645664278471       -1.58534745156924       -1.86134708562882
C            1.29435669741660       -0.19456949129082       -0.22577043094622
C            0.74768513100033       -1.43034605777730       -0.01774194833188
C            1.50351763889890       -2.59080333415839       -0.31547928526140
N            2.04032889867117       -3.59043150721879       -0.48491121149430
C           -0.54225200492949       -1.76626946996370        0.61020194334294
N           -0.54074245619207       -2.81751709596425        1.44874651219391
N           -1.68103138420239       -1.24114776440774        0.31887347824551
C           -2.17961597749911       -0.09204695908927       -0.02641342061472
H           -4.50307730426991        2.07317887594494       -0.88938930787077
H            4.08890466202537        1.61443528330817       -0.13468104777374
H           -1.42554593133557       -3.14737352232897        1.80001412625382
H            0.26843501447206       -3.40982128215765        1.53829991228501
