28
 energy: -57.036173072537 gnorm: 0.000504201355 xtb: 6.6.1 (8d0f1dd)
N            4.83748283452021       -1.93855926827889        0.52083883621338
C            4.24405709652518       -0.99155309938926        0.25594254530995
C            3.51828071837634        0.15542614375075       -0.06721441353348
C            4.01009269318205        1.31603526728957       -0.72023313883116
N            3.09644115324562        2.24773008464355       -0.87354055960271
C            1.95723057056554        1.79726276675451       -0.29266826283909
N            1.01335499962323        2.62125911056050       -0.00442518567507
C           -0.19202742036066        2.62930038949235        0.45804578519601
C           -1.24338668745802        1.70871031316750        0.27726857833087
C           -2.51324953551674        2.31025583472876        0.48101471770843
N           -3.49520776846659        2.84842773408162        0.72583789877944
C           -1.23195643646034        0.33264646464010        0.00815084445806
C           -2.41641975677656       -0.38174207593553       -0.26152905373799
C           -3.67678988595116        0.10166996022744       -0.63282290497239
N           -4.73535795027227        0.36315320579669       -0.99371137043674
C           -2.16849056434671       -1.77567600546483       -0.15952679813355
N           -3.06267613013669       -2.74939923992468       -0.33933025340645
C           -0.80019447780286       -1.93608902134766        0.16753917878399
C           -0.19349146236256       -3.18179082269872        0.34856945029163
N            0.25957092704164       -4.22797667477878        0.49093735083991
C           -0.16689419324705       -0.67147126363358        0.22071783026361
C            1.21409542350625       -0.61702277202539        0.36967824538313
C            2.14330059795395        0.38228775668543        0.14273168688492
H            5.01476711514104        1.46609570673924       -1.07284611253404
H           -0.47278764193534        3.57757124873983        0.91186515179384
H           -4.01231721396246       -2.52313943952438       -0.58562254192744
H           -2.79440713921502       -3.71373143180472       -0.23522544823495
H            1.66320987729057       -1.59693492429145        0.52174128322819
