27
 energy: -46.124505145672 gnorm: 0.000656212942 xtb: 6.6.1 (8d0f1dd)
N           -4.11246595104591       -1.11510327177704       -0.93707129817812
C           -2.96333482693928       -0.58297769444722       -0.49378112550841
C           -1.82090008286239       -1.28005777885448       -0.06931689049880
C           -0.83363071305360       -0.32200807349876        0.15718228376474
C            0.53826318653974       -0.50864759099317        0.26886055501167
C            1.13075803839867       -1.79791578215858        0.41783934782110
N            0.48444700003815       -2.92780621970434        0.85199877917523
C            2.46690425146612       -1.74746688686503        0.03197938772372
C            2.76760580426694       -0.44972565815010       -0.38363331216635
N            3.97923638730322       -0.06151950599075       -0.88476272521196
C            1.63025246864701        0.38162652123789       -0.18612508793933
C            1.66244053549597        1.74453030032890       -0.43441822874623
N            1.00145810553987        2.71361468011944        0.14943693261360
C           -0.13012127335662        2.70835795981061        0.79656618543506
N           -1.25796085523100        2.14377304862637        0.48591385327942
C           -1.59758070025553        0.99013073728132        0.00065961941068
N           -2.82088559907993        0.76405244644062       -0.45505464459394
H           -4.27689349435021       -2.10375035477461       -0.89170094518162
H           -4.84908708259051       -0.49110746227513       -1.21317827281401
H           -1.71265073323715       -2.34506595754363       -0.10791836358276
H           -0.30291141493558       -2.77526664063108        1.46235126109477
H            1.08833876726004       -3.68754555999172        1.12529072275378
H            3.15432325264487       -2.57456291401559        0.04731335344512
H            4.75587830999079       -0.67623746525469       -0.70631137209563
H            4.19722703828388        0.92012238114998       -0.88187329540326
H            2.48060665584742        2.11211172231304       -1.05152543664124
H           -0.19918599158515        3.44560162581781        1.59682525943275
