35
 energy: -62.297194891555 gnorm: 0.000733376197 xtb: 6.6.1 (8d0f1dd)
N            5.02239380520570        2.26303563413514       -0.98210487339256
C            4.05130790397707        1.72482894093021       -0.68098686670398
C            2.91444461133426        0.99875244667722       -0.32461810957893
C            1.60171921354610        1.44187991426829       -0.26445322346571
C            0.75687812445986        0.35206753086096        0.02508910997556
C           -0.62557124261075        0.53251869057525        0.11567339597604
C           -1.22163319838454        1.79485105285243        0.30126919888168
C           -0.65548154081296        2.99209521900195        0.73418918340332
N           -0.30459334501893        4.02229233357621        1.11229286433578
C           -2.62065877075381        1.70336653172552        0.04880993963032
N           -3.49357009053880        2.71423111330768        0.15061259364375
C           -2.90610665299055        0.37729039974701       -0.31797901523963
C           -4.17080711067436       -0.10341421155535       -0.63884968753623
N           -5.22344218701593       -0.48833948983923       -0.90685316709453
C           -1.71734372721659       -0.40222781290299       -0.22160306091119
C           -1.77086258429082       -1.74598993864980       -0.50406345265224
C           -0.96449234339174       -2.85886407412236       -0.19229396390446
N           -1.52916081304778       -4.05336136754484       -0.53127739096439
C            0.24006825820218       -2.95448585925199        0.50590013947793
C            1.32472399766587       -2.11137545923364        0.73280928357383
N            2.33688710397690       -2.67505802720746        1.45175741882776
C            1.61806965911780       -0.81857148143930        0.21376594433977
C            2.93455512140828       -0.38623537737394        0.00743972038524
N            4.10891708046866       -1.11694915600417        0.08180770089938
H            1.28241773768182        2.44100565434792       -0.48710281905467
H           -3.17687824259560        3.62148749661953        0.44760557933024
H           -4.46851745599579        2.56490116154029       -0.04293182565838
H           -2.72906940336934       -2.03813696398601       -0.92751035700894
H           -2.47236896961238       -4.08547315770824       -0.87550683831650
H           -1.10381220963385       -4.91685666935808       -0.24531729824551
H            0.41837078770872       -3.95936441692600        0.88217542954432
H            2.18254345880935       -3.55133972083448        1.91938837950794
H            3.07818569730539       -2.08565138416120        1.79005136411720
H            4.03905901178926       -2.08473688033534       -0.19849800040676
H            4.89666667939707       -0.64103226443114       -0.33743956181456
