31
 energy: -60.209986762146 gnorm: 0.000786544754 xtb: 6.6.1 (8d0f1dd)
N           -0.67340443174639        5.11071646272804       -0.51117308045693
C           -0.47607724791582        3.99198901672880       -0.35124873071217
C           -0.26527926090117        2.60048233757952       -0.15848793915546
C            1.07549233887285        2.28917181016073        0.11888978878622
C            1.81792977118752        1.13031562520778        0.22748939906308
C            3.16774592674250        1.40694658638961        0.58020591237309
N            4.22415351546822        1.69447123947184        0.92168828038782
C            1.54069926082740       -0.24980972940344        0.03653288444287
C            2.54662127590813       -1.19664580679444       -0.06715720135343
C            3.93408067763093       -1.10909293414010       -0.16427220118632
N            5.07194633157108       -1.21291443238725       -0.29561213649487
C            1.88362195808137       -2.49111345851549       -0.14505604569330
N            2.51421897526684       -3.65486737407819       -0.27077556993794
N            0.57571177668034       -2.36621473544720       -0.07613994523349
C            0.28077100432896       -1.04108731642051        0.00813886843107
C           -1.05712046421413       -0.70919574221312        0.07325082252625
C           -2.00905617241022       -1.75509654398810        0.17054621439691
C           -3.28397908463488       -1.22673055863952        0.15936051601532
C           -4.49658517093735       -1.91881900717914        0.25962760468494
N           -5.51524022493417       -2.44344128665937        0.33501723649807
C           -3.18956529489210        0.19377910423980        0.02070240171509
N           -4.27020090436913        0.99415462619487       -0.01868565464760
C           -1.81980935333397        0.55368654975808       -0.02423483856410
C           -1.45433409888859        1.87513899683836       -0.20539146572373
H            1.68021615916389        3.18392293724279        0.25459894256030
H            1.97833439518654       -4.50413745833477       -0.32232224308034
H            3.51845281788021       -3.68178901629244       -0.33312954827636
H           -1.74704486078720       -2.79139860188701        0.25072655877112
H           -5.18674753580331        0.58131952602297       -0.00523585686107
H           -4.19218129472830        1.98633767723472       -0.15261959196015
H           -2.30461625600192        2.53042907218282       -0.38127649171477
