21
 energy: -35.793537343255 gnorm: 0.000538728022 xtb: 6.6.1 (8d0f1dd)
C           -2.76651820498313        1.63036338288828        0.17772563015028
C           -2.88140546848554        0.27167451003357       -0.19011214379420
C           -1.63926293916389       -0.33862973637156       -0.11143149951611
C           -1.43265396881595       -1.68125113734975       -0.49952495729427
N           -0.56114845472385       -2.53741706698966       -0.09372402673607
C            0.57400416845646       -2.42308652145053        0.56328742033460
N            1.56535717077158       -1.63500721234744        0.31126432084042
C            1.67866412402744       -0.38575785594029       -0.03871497350104
C            2.83738384370397        0.26575788663421       -0.44920879886149
C            2.60030074440387        1.62801563476584       -0.24785237794166
N            1.37040897299378        1.90918913411679        0.17765355714091
C            0.69714942989687        0.74926905383351        0.22862998210002
C           -0.67925520264757        0.71588782198211        0.27102605722347
C           -1.44674029757717        1.91029307057668        0.41384622654615
H           -3.58532728253718        2.32405134055379        0.23665329275096
H           -3.79443711659743       -0.22354365070222       -0.46738326273475
H           -2.20093270445203       -2.10731627640571       -1.14193558192168
H            0.78849585346786       -3.24337909257082        1.24526907528439
H            3.75694326315268       -0.19254523602296       -0.75138226893578
H            3.30504109975453        2.42850106330529       -0.39579623478870
H           -1.00747947534491        2.85524508746118        0.66654167825468
