29
 energy: -50.368738530657 gnorm: 0.000508254810 xtb: 6.6.1 (8d0f1dd)
N           -2.95284953810885       -2.89948955911210       -0.53796267743159
C           -2.49587655818397       -1.86284881201268       -0.32457315460840
C           -2.11295080828858       -0.54982418327160       -0.08001775099922
C           -3.10770814640605        0.48518766506072        0.07614488570927
N           -4.42815823589579        0.28447231836814        0.03490715743626
N           -2.56113668659192        1.67201356238784        0.27159423557764
C           -1.21198702018577        1.51302312228416        0.21559956527627
C           -0.47152498300423        2.65845297093261        0.35744959360212
C            0.87637577974188        3.00109784543307        0.16911356480358
C            2.01008158557193        2.34769380669045       -0.21448898302878
C            2.40733141976507        0.98853840729142       -0.39569554021757
N            3.67321501911417        0.86811925017191       -0.86912951704163
C            1.76236257379503       -0.20118632106488       -0.04869738138233
C            2.46442463371522       -1.43381433394095        0.11041645057027
N            3.83960970978984       -1.64839245809848        0.09089503317663
N            1.65043686676484       -2.46414474243058        0.32551436134207
C            0.40568202936795       -1.98654644570535        0.27408442606231
C            0.35463832831813       -0.59928594250181        0.08790980634882
C           -0.87161272695561        0.07749319209757        0.02424320331055
H           -4.79309156377951       -0.63621713520416       -0.13686774079409
H           -5.04782362889489        1.06653254281863        0.14880286875445
H           -1.10966083670300        3.50581373733651        0.58184624532830
H            1.03561727996271        4.06803625646350        0.29387504874933
H            2.84757307217317        3.01858938414367       -0.38841223493627
H            4.16510170160671        1.68286272466962       -1.19240823856223
H            4.00688427903145       -0.04364468201162       -1.14231151010281
H            4.02610014540939       -2.61635956988675        0.32693356494804
H            4.36437210203996       -1.01971019137034        0.68755682152080
H           -0.42392620837039       -2.65013070343081        0.42441444809002
