32
 energy: -59.131610400835 gnorm: 0.000849635888 xtb: 6.6.1 (8d0f1dd)
N           -5.29515895911393        1.21670802793880       -0.41984508363042
C           -4.16842173781940        1.44640941612774       -0.40405159039369
C           -2.80191675835163        1.72402539336090       -0.38786296177900
C           -2.18946179919895        2.95801284731819       -0.74801580103758
C           -0.82988324075493        2.88369491720398       -0.55690962108095
C           -0.49358558056426        1.57125623981085       -0.16018440707202
C            0.77733184335749        1.04625290687215       -0.06022541578922
C            1.92360904345712        1.89625013746137        0.08932139276400
C            3.04489179712373        1.11587151526040        0.17487007356984
C            4.36269972602456        1.51076789745245        0.41968764390699
N            5.46125941186204        1.77944271188711        0.62353829005813
C            2.65298165835415       -0.26543990482049       -0.01957371120998
N            3.56837139906313       -1.27768772133390       -0.06683654945683
C            1.26995303103282       -0.32168253779789       -0.14789046333054
C            0.60219257639499       -1.54104968649422       -0.55317144362200
N            1.32246039131591       -2.32647736118704       -1.39755345188262
C           -0.57530190267437       -2.06072236102922       -0.04172456434007
C           -0.92729467631773       -3.37752577096848       -0.36910321281664
N           -1.20219888263827       -4.46826839529031       -0.61546930028996
C           -1.47369134550944       -1.40072833672126        0.89534777961266
N           -1.88457240166281       -2.11872697255715        1.96262195758271
N           -2.00313765317094       -0.24435540283795        0.71321792479322
C           -1.79509019973129        0.85117034736947        0.02717004871237
H           -2.73153652634356        3.81239102490768       -1.11316885568538
H           -0.12834635545485        3.66775366080824       -0.76703873409768
H            1.88380725486093        2.96089102126857        0.21074250994833
H            4.48675230448635       -1.06148475761303        0.28867055095037
H            3.24411889065701       -2.21622843195833        0.10371305636778
H            2.10053652910524       -1.93152265276041       -1.89519383046238
H            0.90412050383019       -3.16925616879646       -1.75691767534963
H           -2.64515128424472       -1.75451091369224        2.51274247589453
H           -1.69930996668282       -3.10691774868723        1.99803836566648
