32
 energy: -58.341795447789 gnorm: 0.000917704842 xtb: 6.6.1 (8d0f1dd)
N            3.60791329139285       -3.14382381481627       -0.39412884608383
C            3.05431169978553       -2.13638170745111       -0.32198140145738
C            2.44428956468258       -0.88879377090987       -0.25920799091976
C            3.10805349181507        0.35032769590136       -0.56212935018836
N            4.38040101865898        0.42659953613888       -0.97960401923668
C            2.22680245760446        1.40925892417750       -0.34603074515908
C            0.97174201883763        0.89220485966974       -0.00696613724887
C           -0.22273958735402        1.57523498094285        0.11796941735385
C           -0.33557957152606        2.99622746292278        0.39362217475648
N            0.68431907266713        3.83138306603552        0.72748318668165
N           -1.58730631978807        3.41396974932138        0.35228281574542
C           -2.32819460062434        2.34745246412744       -0.01743792448884
C           -1.59202226270848        1.17391890426719       -0.12995566572017
C           -2.19158527024706       -0.04960147311084       -0.58961979645294
N           -3.19075171479758        0.10352405521502       -1.48857233423886
C           -1.94655425725595       -1.32929190345565       -0.10057359631177
C           -2.83740945555663       -2.35623144707468       -0.43393902131664
N           -3.58134526534320       -3.19800171415549       -0.69140967231930
C           -0.91240305709771       -1.69051216024613        0.85009992394150
N           -1.28063862924471       -2.49062303016789        1.87608435511596
N            0.34312120506399       -1.42598413292458        0.73646895242261
C            1.13806918180953       -0.59003344734506        0.12151333508479
H            4.79304371926955        1.31333519027427       -1.20822321370404
H            4.89389950821499       -0.41809178858549       -1.16548849349326
H            2.44623717300976        2.43626454810640       -0.56767221893863
H            1.51160766703697        3.41272221270513        1.12078895697997
H            0.38705464723936        4.70397738964979        1.13596496984323
H           -3.39324708386632        2.46599361272041       -0.11744168169924
H           -3.48028154765521        1.02823067627223       -1.75212844415366
H           -3.77363553847178       -0.68116493612293       -1.73040359389005
H           -0.55690747732861       -2.90704019787499        2.43764586272425
H           -2.19122630993544       -2.91808817110414        1.86798985326915
