31
 energy: -53.813624241329 gnorm: 0.000800104018 xtb: 6.6.1 (8d0f1dd)
N            4.92347195971828        1.75623009846462        0.20058729625523
C            3.89526546702733        1.25485743982213        0.06032829533384
C            2.65495091544745        0.64117590783394       -0.07181150992657
C            2.41658305308407       -0.63133097664037       -0.60126726328082
N            3.37685876494432       -1.43177960517373       -1.14316469689812
C            1.03101263366005       -0.93505430522979       -0.42796561641750
C            0.53508798851997       -2.19853177060957       -0.64659116429025
N           -0.44485167762675       -2.84042041097168       -0.05107920009849
C           -1.58448169155345       -2.55496547325327        0.49022609776330
N           -2.07262928252523       -3.49223650727478        1.34214032622737
C           -2.48462974365751       -1.48148233042367        0.18280236395283
C           -2.23225140060461       -0.16807725712436       -0.05821657992014
N           -3.30953866163104        0.64708291038413       -0.23749198150778
C           -2.84596622535336        1.88771732729743       -0.25794442171745
N           -3.66473768165640        2.95106199799772       -0.39584111481686
C           -1.43421829039595        1.95280009029337       -0.07776707133981
C           -0.97567228448677        0.65537452966381        0.00752229890886
C            0.38276931240852        0.28005098590767        0.09968685183688
C            1.41022699162062        1.20264978925710        0.33913220437401
N            1.30835288094377        2.46806387562019        0.85967001262284
H            4.33481870338792       -1.18555915535079       -0.95438850735583
H            3.18267278471343       -2.41046733353112       -1.26156979431860
H            1.14161005158981       -2.87141443001080       -1.25168805267979
H           -2.95487310502022       -3.35578319577050        1.79980475452893
H           -1.48495624597109       -4.26117525312168        1.61262612227914
H           -3.53732820130301       -1.72742671144993        0.24949190776636
H           -4.61335476411663        2.76882073611287       -0.67539242454700
H           -3.26849927885256        3.84926068122204       -0.60962112087195
H           -0.85889316306607        2.85425989123622       -0.14032776729005
H            2.18066138083325        2.86940408532915        1.17156624364139
H            0.52356961402012        2.63088506769294        1.47146824438625
