28
 energy: -51.446701106463 gnorm: 0.000726931706 xtb: 6.6.1 (8d0f1dd)
N            4.51342751422686       -1.15349981129271        0.66489704795595
C            3.47592927018133       -0.71313313512476        0.43510170791512
C            2.24074548347714       -0.12353070269373        0.17633028129782
C            1.04657183610464       -0.76607823677017       -0.16939015752071
N            0.97486906310611       -1.98422387944621       -0.60643223417521
C            0.32141979915510       -3.07573686995566       -0.52268658123840
C           -0.69008814007277       -3.37859209325507        0.41462565589204
C           -1.65030385478850       -2.50626795292294        0.84738954052083
C           -2.01216403961925       -1.20121612997951        0.45103739638142
C           -3.32880364228350       -0.79044868671246        0.65430049447619
N           -3.61321628076151        0.41980980409275        0.15103058332203
C           -2.47423218975639        0.91325619957486       -0.31432824289712
N           -2.47218305249122        2.06682915578256       -0.99562868370764
C           -1.36021941433257       -0.02126064441754       -0.14756423538309
C           -0.02523992512324        0.27686475041018       -0.25385265134548
C            0.65526597833948        1.52840923092113       -0.17009048772793
C            0.19910160337522        2.83766423058731       -0.22792732466593
N           -0.06157453808626        3.96207481796715       -0.27144657899848
C            2.00801686669827        1.28275021604995        0.15954823358567
N            2.93148239735752        2.21219557419861        0.41695056054355
H            0.64036553096565       -3.85495290991255       -1.20990947393234
H           -0.78481225079140       -4.41613608576650        0.70127039903713
H           -2.40554177777270       -2.95115034050640        1.48823611138423
H           -4.10725543116501       -1.36674476101700        1.12179407417538
H           -3.33016390287101        2.59308106813618       -0.96481697993142
H           -1.62113757922750        2.56484903048510       -1.19499522110537
H            2.69778155522372        3.18920616992739        0.35580394598562
H            3.86169726482811        1.93837510023499        0.68431375825595
