30
 energy: -54.900452804603 gnorm: 0.000572457117 xtb: 6.6.1 (8d0f1dd)
N           -4.39969664129468        2.06922937827175       -0.36166155621358
C           -3.45620089040378        1.41995594158838       -0.24843897857917
C           -2.34724460335170        0.58954163473044       -0.10039596197041
C           -1.00045007578376        0.95835595473116       -0.21671815117371
C           -0.65264313218121        2.23601291134960       -0.68122600797105
C            0.53909657425570        2.92715449655432       -0.62847339057201
N            1.57251124625726        2.75358322226731        0.16015177226818
C            2.20930875054659        1.74132761907821        0.64627037687402
N            2.99411955797426        1.94509652777857        1.72142439956713
C            2.26528899825355        0.43096367598516        0.03747274855198
C            3.40758118090024       -0.31089848128226       -0.16743269233730
N            3.14913038648921       -1.55250413322821       -0.64489982757784
C            1.84060793139316       -1.69446470560278       -0.64314001900001
N            1.27170397380652       -2.76421194544694       -1.23677749144296
C            1.15592939231480       -0.45874114316848       -0.21428306260595
C           -0.19946646722361       -0.27667097783871       -0.02508422480079
C           -1.13724425575655       -1.31693538002165        0.26351842894981
C           -0.89364008359501       -2.62148275811409        0.67538612085999
N           -0.77658743041916       -3.71300014249554        1.03081792226993
C           -2.43916709849000       -0.79010199207073        0.24681975967816
N           -3.57577951912028       -1.45025926964786        0.50864455358329
H           -1.47771063656692        2.77675227889853       -1.13150462736244
H            0.58797162995265        3.86017988341434       -1.18325573091091
H            3.62723355257859        1.22559214253717        2.02182514231696
H            3.05691808698867        2.86488556157047        2.12322521647917
H            4.42634225628539        0.00640027724407       -0.03269776529619
H            1.92541023136423       -3.48173061624503       -1.50728339826021
H            0.35288020447726       -3.07015469209332       -0.96464549783777
H           -4.45304243495058       -0.95891652524505        0.51191444173179
H           -3.54578129580244       -2.41144888190013        0.80288383158052
