35
 energy: -67.889864670662 gnorm: 0.000729705260 xtb: 6.6.1 (8d0f1dd)
N            0.53943534833226        5.08018983972728        1.15674112643745
C            0.41370415217639        3.99352077938734        0.80539890662425
C            0.28019470241508        2.64858968107959        0.38804642885243
C           -0.87049496247715        2.43294330836548       -0.38764695283838
C           -1.65636208431789        1.32434611559838       -0.62211276764540
C           -2.78765077728440        1.60045363470671       -1.43513893171056
N           -3.64170282905962        1.84555754255574       -2.15995285638274
C           -1.60835017426572       -0.00382317095818       -0.11257236204858
C           -2.76010762278390       -0.76746016045160        0.04012880585985
C           -4.10128872953969       -0.38217676093426       -0.04232121715023
N           -5.23166036911580       -0.17552951763820       -0.03056794419718
C           -2.39228072333337       -2.10475927580338        0.42544557468227
N           -3.25438151110568       -3.07926520704587        0.71795811981352
C           -0.99103903980276       -2.17292197323510        0.43973938986345
C           -0.31195438642268       -3.32899160180272        0.82995020531517
N            0.16176836053815       -4.31804504173575        1.17670990186453
C           -0.45839114122354       -0.88879829423052        0.13840435440774
C            0.89608304855675       -0.65047242594269       -0.04049630756867
C            1.78902029395954       -1.70561727857622       -0.38210485001770
C            3.06156063172914       -1.19659708749282       -0.49468829788950
C            4.22369364010764       -1.85183753158608       -0.91267618290468
N            5.21081005386710       -2.32816347286740       -1.25658237987662
C            3.02841667199139        0.19574557640271       -0.13070172168582
N            4.15788059303401        0.96984851619266       -0.07937103167288
C            1.70536314219917        0.55404484430310        0.13030043568239
C            1.37095670055933        1.81741854642729        0.71396632290433
N            2.30608035689346        2.33767905354817        1.53595478691087
H           -1.29710494709319        3.35398305298108       -0.77804721404956
H           -2.91873084724209       -3.99043129201123        0.98361311011084
H           -4.24535390397233       -2.90366937910519        0.68492147122651
H            1.49985535562994       -2.71285006319071       -0.60896294091270
H            4.05221606839499        1.96146821889051       -0.22925576926567
H            4.97140089766586        0.56524407495669       -0.52027605202404
H            3.10140698047931        1.78668692667785        1.80884497096955
H            2.17438619471160        3.24853287058635        1.94588469902348
