35
 energy: -66.304809833072 gnorm: 0.000738043696 xtb: 6.6.1 (8d0f1dd)
N           -0.59473858627194        3.92619089760768        1.98771847153382
C           -0.62515019309097        2.99122594234696        1.31964364760105
C           -0.71534622723062        1.81879744221209        0.53823227067718
C            0.53744286180636        1.44362065888824       -0.04605910049064
N            1.40763592755220        2.40458803692683       -0.29581792364315
C            2.57878426994762        1.81973144073420       -0.65145930832550
N            3.62495820274140        2.56154036344973       -1.03911118100028
C            2.51089563824006        0.41891103437564       -0.53268039824984
C            3.54881599231615       -0.43300548710218       -0.87301090813355
N            4.45099983405432       -1.10111543142803       -1.14379046217082
C            1.16372583454774        0.11964225897481       -0.16670358926758
C            0.61490014987390       -1.09536756739999        0.19544361667071
C            1.33360510321144       -2.22482810693160        0.81950336953039
N            2.59448211837536       -2.21324720554337        1.26362742222325
N            0.52357392123494       -3.22833764340367        1.08773384747206
C           -0.70012182376506       -2.87575733666921        0.61231913563592
N           -1.71224102811140       -3.77635300165979        0.65835868921722
C           -0.72718150634687       -1.56467615172837        0.10044655821087
C           -1.83270792560154       -1.03836412198488       -0.66244421012487
N           -2.47454781322705       -1.95532338224368       -1.43850785440423
C           -2.35881240086748        0.23425402734304       -0.57378659348015
C           -3.50718999175040        0.51197796236751       -1.33328433541183
N           -4.45178970900297        0.73118685600292       -1.95539676872606
C           -1.98483234787780        1.30899246301997        0.33607967398003
N           -3.03471709038511        1.91254133091626        0.94283110830764
H            4.48049200817942        2.12631849215103       -1.33407096226514
H            3.50418009281281        3.55526136842047       -1.11852867851474
H            3.27502854438519       -1.58768471817869        0.86380486911965
H            2.92453701141481       -3.06504042920788        1.68648831535577
H           -2.65836641956010       -3.43678948307019        0.60548570643378
H           -1.54235108299785       -4.58144415110322        1.23805377502237
H           -3.19900984149177       -1.63994555752124       -2.06414828714345
H           -2.00235591527873       -2.81514282972871       -1.65945197041096
H           -2.88243961770736        2.77142912125125        1.44818685364005
H           -3.97205377352922        1.68969149161551        0.65123900313127
