27
 energy: -50.949059115018 gnorm: 0.000560111567 xtb: 6.6.1 (8d0f1dd)
N            4.49357420739056        0.18660683788611        0.28475177161028
C            3.34889816041913        0.08392396814945        0.24066363783553
C            1.96177940622354       -0.14327677972835        0.16735869761439
C            1.58615245380424       -1.47016672534130       -0.25879185998057
N            2.47067045660093       -2.10837026702925       -1.05132911990739
N            0.56779572645390       -2.17015170685206        0.13732737701602
C           -0.68061650788055       -2.05017210284483        0.49298602661092
N           -1.16793974916076       -3.04190292452810        1.26334630142679
C           -1.59378631209535       -1.06075061107130        0.03304198481008
C           -2.95992654016200       -1.23902957145278       -0.16793595003931
N           -3.61102960146028       -0.11100249020539       -0.50130825970489
C           -2.70541114130775        0.86084466300544       -0.47377878438585
N           -2.95381872902215        2.14263891155232       -0.71855255058733
C           -1.36606628275730        0.35275656554032       -0.16486738670013
C           -0.30601587506601        1.19420350686429        0.05950472390013
N           -0.47761348831197        2.54551381679675        0.08220335268168
C            0.70401202853477        3.04026460830707        0.42045037870091
N            1.69438784543040        2.16886539561514        0.58075830928858
C            1.14542617383323        0.96627182302788        0.34036217846728
H            2.30400901612308       -3.06764885135463       -1.30174542759648
H            3.36627430466822       -1.69166928521786       -1.24377685589366
H           -2.13865477344759       -3.05353781426681        1.51730861945695
H           -0.56109482313084       -3.78514276826641        1.56220555323941
H           -3.50620000787306       -2.16588812722213       -0.12997058264592
H           -2.17329701610717        2.77267214477822       -0.51286715289748
H           -3.90239396825348        2.44706314243461       -0.85090978714208
H            0.85551897625363        4.09655627672261        0.55463901782305
