30
 energy: -54.893358955657 gnorm: 0.000932139482 xtb: 6.6.1 (8d0f1dd)
N            3.09740619160287        2.69742148114985       -1.06493149004164
C            2.18872953788450        2.13596330742116       -0.64385195360751
C            1.01651797095881        1.48626071798781       -0.19235330846933
C           -0.09922474827244        2.31822145063507       -0.15138013933749
N           -1.22878366891209        2.18756912263654        0.48462760194553
C           -2.07174804741957        1.24701023597516        0.77439592133856
N           -2.97939937816739        1.52432009942541        1.73801318015444
C           -2.24187524489081        0.02678401897152        0.04379859386478
C           -3.45620056192110       -0.58631023556832       -0.25342006715612
N           -4.72747527684617       -0.11782246499655       -0.03931812863874
N           -3.27856828624974       -1.82155189508401       -0.81516669997890
C           -1.99164198647438       -2.04858882797714       -0.81526861716172
C           -1.22652503349782       -0.94002173765397       -0.31321024057372
C            0.14384042288866       -0.99624074270442       -0.10178027679134
C            0.85801919238613       -2.20631783683734       -0.06019454079803
C            2.19208923950474       -1.95123807828779        0.20292447727173
N            3.18972567757256       -2.82685686834506        0.39015367618179
C            2.37139316930949       -0.51538570425121        0.26748506915721
C            3.61598706254652        0.04798732095908        0.54599868090893
N            4.67662774345675        0.38760488125518        0.83563342632806
C            1.14366291240252        0.09841785727894        0.07683635177497
H            0.03781992030606        3.31140433597651       -0.57507317920947
H           -3.63219727261201        0.81703310033462        2.02403015922199
H           -2.85822629487503        2.34941917543948        2.29949864354667
H           -5.42745014301520       -0.63541498193851       -0.54981894768128
H           -4.84560488130156        0.88360612136075       -0.06501002837605
H           -1.59843004065694       -2.95547359525095       -1.23338942767717
H            0.42265623912210       -3.18296951376477       -0.14160624806471
H            3.02324760120458       -3.81526539470281        0.32881236220198
H            4.11551682306596       -2.49037061334441        0.59448341986681
