27
 energy: -52.533518781569 gnorm: 0.000683808518 xtb: 6.6.1 (8d0f1dd)
N            5.70771607468395        0.66270595324418       -0.15239957403376
C            4.59663358287304        0.37810016488619       -0.18405527038943
C            3.24488009218268        0.00650390319036       -0.22488915089358
C            2.75117306473362       -1.19373846237747       -0.78178711151610
C            1.37941198034918       -1.26129333749241       -0.56602621535750
C            0.65109331527007       -2.39994585480693       -0.95562076173385
N           -0.40554065881755       -2.92596352105407       -0.42945029970195
C           -1.27943078809965       -2.42120255361797        0.42600797650383
N           -1.69517400118410       -3.20100136231739        1.43425378925585
N           -1.96128099155654       -1.30574118507875        0.20713928984053
C           -1.62040211691724       -0.09311419916935       -0.03217937408592
C           -2.58730235076007        0.94196374362711       -0.24421303414941
C           -3.93841189819242        0.72373551802040       -0.52989581226080
N           -5.04630003282524        0.54192043014063       -0.77017233798926
C           -1.96936221577498        2.15161057547923        0.01502901928015
C           -0.59568298263267        1.94846898593928        0.30078223117677
C            0.25812027485066        3.01987562335080        0.58230442589696
N            0.90527967808083        3.93776523787665        0.82633662917243
C           -0.28942712038562        0.58189018207886        0.18078670703859
C            0.97953747446426        0.01362420836609        0.07103048518206
C            2.17172101579032        0.74471031186621        0.26333132895570
H            3.35038361423770       -1.95522103977268       -1.24558229486449
H            1.11740009594394       -3.02583177222885       -1.71193638108844
H           -1.33798633190119       -4.13773513330896        1.51082406864659
H           -2.51103445080505       -2.93613025426288        1.95939898235600
H           -2.44734229326378        3.11516868133841       -0.00238310845950
H            2.24177844915529        1.71911549808344        0.70544858601908
