30
 energy: -54.892880504269 gnorm: 0.000746213735 xtb: 6.6.1 (8d0f1dd)
N            4.98140908914966        0.59678711812384        0.54933057347816
C            3.85817564316643        0.47749782082502        0.32540975590296
C            2.47904155968460        0.32871518197179        0.06487172680087
C            1.89991246532420        1.46892734695313       -0.54581726979799
N            2.77837532977835        2.33712816103488       -1.10647529640588
C            0.57272943367097        1.94185783121544       -0.52655502943723
C           -0.66347368988168        1.45368047200650       -0.18716627238670
N           -1.66173873098683        2.36428084950105       -0.08901563439816
C           -2.78761034158638        1.69728988870845        0.12896299963678
N           -3.96430516169575        2.29774208534419        0.31354977628189
C           -2.57776016585768        0.27080456068335        0.13447374855898
C           -3.61718195849437       -0.62773256449951        0.34915092184980
N           -4.54736981139638       -1.27609580671122        0.54894936276559
C           -1.21089915759074        0.07881799500964       -0.04672719916427
C           -0.57807986952132       -1.15223809943345       -0.22972686994600
C           -1.26776138738488       -2.33412163939808       -0.58300534967577
N           -0.46032918270419       -3.38009632630917       -0.67225070299817
C            0.75072058436300       -2.96453930915892       -0.29059138070079
C            0.79063613037043       -1.58449205258309       -0.03365047000138
C            1.97337907151247       -0.95003012168822        0.41486248176999
N            2.78981883566952       -1.73181906788367        1.15141054079072
H            3.76846281201382        2.15906410793751       -1.07906154667812
H            2.46276332617884        3.23822545427106       -1.41983979482949
H            0.50303089633353        2.99458914926284       -0.78569212877687
H           -4.01205356780571        3.30119881351300        0.30275112980580
H           -4.79118929019140        1.74942899482980        0.47618612529151
H           -2.30958424858659       -2.41875609612269       -0.82800059318196
H            1.57942564455509       -3.65128898833180       -0.31210632568302
H            2.51311836267163       -2.67862001434193        1.34521481143919
H            3.72720067584170       -1.44083129013216        1.37779302599237
