26
 energy: -38.382526667797 gnorm: 0.000904235635 xtb: 6.6.1 (8d0f1dd)
N           -1.98103077655067        2.39109812637564       -0.40677890893336
C           -1.90825436621365        1.04679934243313       -0.10980597496791
C           -3.09240050782400        0.24703548096932        0.07879068429017
C           -2.71895584041624       -1.01485448002286        0.38174147343448
C           -1.27423775901395       -1.10804140181589        0.30248294623429
C           -0.71446975962416       -2.34746162798921        0.34785703594072
C            0.55621047618090       -2.89184145426357        0.02347957371781
C            1.75091031123044       -2.37643400775198       -0.37049238927062
C            2.29384121142061       -1.06665522730971       -0.46301056846038
C            1.84631957943917        0.18999037105010       -0.20631118569192
C            2.81066516516812        1.26986087541579       -0.14683281445802
C            2.19126654883221        2.38373235524462        0.30492289486774
C            0.79471608340231        2.09927456624139        0.46777473094352
C            0.53907940658434        0.79407579075484        0.14017804608194
C           -0.78550088848768        0.25707766960310        0.06104654458810
H           -2.85167894936206        2.67520960648879       -0.83099164467899
H           -1.16006726358088        2.76758701594369       -0.85945023417052
H           -4.09468965055609        0.62840381767927       -0.00930645460918
H           -3.36218830737182       -1.85557492557349        0.56466570570772
H           -1.43235602128826       -3.12589746706314        0.59244258554087
H            0.54522571045287       -3.97725776024978        0.05656014088098
H            2.48827934256853       -3.13423004436177       -0.61745628610081
H            3.34638671000151       -1.09101362730264       -0.73468001837882
H            3.85784285265899        1.14388986940892       -0.35177959000205
H            2.64425667319806        3.33731773635719        0.51236450965587
H            0.08445553455142        2.80603477543822        0.85302473753852
