22
 energy: -35.509589664765 gnorm: 0.000595623323 xtb: 6.6.1 (8d0f1dd)
C            2.86260734400356       -1.58132042271932       -0.21901756947194
C            2.97655340968470       -0.25700674456742        0.18589497214858
C            1.70265413686216        0.32968500232981        0.17668303556169
C            1.48805595224294        1.67234912168640        0.45796369540497
N            0.59913072685923        2.46603600806256       -0.05828769536319
C           -0.62066874947149        2.48380822274691       -0.45311112069634
C           -1.68923916345218        1.63996405245247       -0.08630153252036
C           -1.69053777716168        0.29451797960830        0.17260405162678
N           -2.89457881372834       -0.28342167946685        0.40001849749949
C           -2.71822310805344       -1.59238326308542        0.32168213195537
C           -1.39500581010815       -1.95306564782230        0.04436078757184
C           -0.65001378201379       -0.77873823981299       -0.01461082107951
C            0.74111077787784       -0.73472687232585       -0.18237666657769
C            1.51693338686870       -1.87903648096424       -0.41537503759727
H            3.67682818341653       -2.27430219452621       -0.33173353911333
H            3.88903028320365        0.26235210071208        0.41348268726708
H            2.27327070886653        2.19698881870406        0.99925756789703
H           -0.87343692519925        3.34982609929280       -1.06185256864254
H           -2.67654677153762        2.08555957281419       -0.10195809631117
H           -3.54925630374627       -2.26017338834137        0.47165673619744
H           -1.03044034403357       -2.95664177409390       -0.04356137395064
H            1.13506609951985       -2.84140065278366       -0.69767747750644
