29
 energy: -51.145743385399 gnorm: 0.000666181527 xtb: 6.6.1 (8d0f1dd)
N            1.55463434620554        4.04817093600651       -1.07419459939950
C            1.24299208100449        3.02254810384992       -0.66708194958536
C            0.88646901973716        1.72016595202948       -0.22761292712007
C            1.90465246062016        0.78546266660985       -0.35241516434907
C            2.05818775085918       -0.53922533857592        0.05226148294568
C            3.41936849955677       -0.92684261273510        0.08132094954643
N            4.52394870362389       -1.24390597097617        0.11323715721046
C            1.14900030302211       -1.59687162941764        0.35327158735630
N            1.70446924887211       -2.70178477272407        0.89731761745234
C           -0.20693929699711       -1.71025532633164       -0.02854882453380
C           -0.77139999922258       -2.94338031767638       -0.35048584041954
C           -2.12128851476603       -2.79000488721197       -0.68800822594479
C           -2.47822634087666       -1.46914607233334       -0.49137161988081
N           -3.71801122957604       -0.93483276326619       -0.70012044131196
C           -1.31270222470388       -0.73648809168432       -0.05313577228213
C           -1.38022730828875        0.54437392509304        0.44577299303442
C           -2.55247788481472        1.18623752699164        0.92305166540699
C           -2.21317102527694        2.49387204392306        1.17293788566164
N           -0.95763411010591        2.78315946732873        0.76258328398297
C           -0.38787887268563        1.65930774363496        0.37345303067335
H            2.82653677099713        1.21569543387527       -0.73814629039222
H            2.70090710717872       -2.76186892144830        1.03138661258808
H            1.13982108270686       -3.51421933063551        1.06886661237534
H           -0.24049605746853       -3.87483712966285       -0.43923038185092
H           -2.76769917488069       -3.57008018565850       -1.04471727408754
H           -3.76535490184439        0.06168605518565       -0.84741161650948
H           -4.34495094886357       -1.48725462149762       -1.26318900366724
H           -3.46618447565734        0.69907672311863        1.20080575146674
H           -2.81224808435472        3.25970110518860        1.63144647333317
