31
 energy: -54.610260474313 gnorm: 0.000863642790 xtb: 6.6.1 (8d0f1dd)
N           -4.75643352324584       -0.08374903501331       -1.34326377530352
C           -3.76555152564324        0.09749966888500       -0.78574251754305
C           -2.55010445325412        0.36005055622148       -0.12042370209481
C           -2.28230611917257        1.68883769203161        0.12912779223220
N           -3.20630849399296        2.61175225981066       -0.25758926060911
C           -1.17699478907290        2.28656732811910        0.85221618619237
C            0.13891333700301        2.02055371225531        0.88271984740501
C            0.96148011764007        0.98548972191956        0.32960304965314
C            2.33704946671125        1.19511743408519        0.14049401334886
N            3.00630468648878        2.35802341259590        0.21285410191618
C            2.98748658830199       -0.05133417552528       -0.16877966513839
C            4.34464326967517       -0.19150669105703       -0.43782491226871
N            5.47260378437142       -0.28162276692344       -0.65180172492436
C            2.02819771804045       -1.04831518243444       -0.11428033309886
N            2.16504535869845       -2.35078703098623       -0.31458550891015
C            0.71412365142307       -0.41180390708732        0.16134658781186
C           -0.42048893308932       -1.17892081663791        0.26484270864924
N           -0.29104119508784       -2.55849791435714        0.38019186990327
C           -1.49512531964706       -3.05683691000973        0.45421473084056
C           -2.49519848241993       -2.05882405177438        0.33594703158148
C           -1.84506818492811       -0.85034775480979        0.22715472525162
H           -3.02095636789890        3.59171670092163       -0.14665625687307
H           -4.01221633858054        2.32469749696170       -0.78702949850990
H           -1.48473784026871        3.18813567949028        1.37215102275942
H            0.72416316394715        2.75212432623237        1.43568871348410
H            4.00083355962913        2.36716509282311        0.06841136961406
H            2.53018927283974        3.21801479779064        0.41717988895826
H            3.07525492699400       -2.75094495965755       -0.46953834397448
H            1.31347997171195       -2.89459831758133       -0.09788694884722
H           -1.64852553430947       -4.11336931233234        0.58816934269514
H           -3.55472048956575       -2.22678636225960        0.33418203199650
