31
 energy: -55.410145978659 gnorm: 0.000671908365 xtb: 6.6.1 (8d0f1dd)
N            0.74015772307815        5.29054968077684        0.53783312661434
C            0.50349036457196        4.17770244176857        0.38116866625849
C            0.19002345544385        2.82752775628328        0.18670177324169
C           -1.09895484225839        2.33077041230796       -0.11077028268497
C           -1.05711714010272        0.94221194110898       -0.13187959299208
C           -2.21027811757791        0.19233101872326       -0.50281047388822
N           -3.05426761890596        0.81627798788022       -1.35241342170773
C           -2.65526703151198       -1.03573302031007        0.03562389502187
C           -4.02437450871248       -1.31285982265639       -0.19635950488889
N           -5.13473807831419       -1.54147458935574       -0.38528423073027
C           -2.05268124737718       -2.03077366379607        0.82049477519135
C           -0.75754447631402       -2.44377502469012        1.02367306882774
C            0.48960521109128       -2.01280318476397        0.56124471234331
C            1.59047307005990       -2.86046556375154        0.60342211492291
C            2.72119331152173       -2.18940050813807        0.11570635748073
N            3.95005586264790       -2.68913883135915       -0.05926434861291
C            2.34338956558334       -0.84275017054266       -0.16881368002767
C            3.25625828742121        0.06724197404136       -0.70073527218633
N            4.08336698650988        0.72565904905904       -1.15622436575002
C            0.97466023143183       -0.68753586101728        0.09430635190986
C            0.33560034461642        0.55518989526831        0.10658350337391
C            1.06440700916429        1.75152747259936        0.26260407800599
H           -1.97253914707464        2.95085251631836       -0.20567689721504
H           -3.96663064781438        0.43476953748940       -1.54318421625826
H           -2.82364547758938        1.72816356915616       -1.70450460141551
H           -2.78999051212673       -2.69864121577641        1.25769807505584
H           -0.68653955716846       -3.37639779976244        1.57435541858508
H            1.57228018622093       -3.88609991863258        0.92149892880260
H            4.14911178538599       -3.65122698305846        0.14982688645174
H            4.67820517222825       -2.10551446170728       -0.43636087558310
H            2.11150144617176        1.82046445123738        0.48427036505375
