31
 energy: -54.609037399661 gnorm: 0.000712194902 xtb: 6.6.1 (8d0f1dd)
N           -4.16681885638411       -2.71785774253424        0.56277412302642
C           -3.32083480427943       -2.00932148933421        0.23619595303212
C           -2.27932876330647       -1.14302399608751       -0.15450845207835
C           -2.75297728036981       -0.09170715695325       -1.03903510187042
C           -2.47720728103282        1.21891679848310       -1.07080759767918
C           -1.55283100748971        2.02493948568770       -0.31935455194319
C           -1.72662806899183        3.37696420089009       -0.13332038125933
C           -0.53502896362378        3.87020543966498        0.45823747778568
N            0.37057928669798        2.93651043472018        0.58898004922355
C           -0.20248769043681        1.75005021513096        0.15507994781647
C            0.56042538063983        0.60437089317171        0.10961379437671
C            2.04687470296968        0.69519676672455        0.12357451929672
N            2.68286667148444        1.84580983550530        0.27408659355948
C            2.55134655792094       -0.57159339808071       -0.11154144815248
C            3.88446594513204       -0.94682361871450       -0.24271135564371
N            4.98030459779544       -1.28212570712464       -0.35356441479403
C            1.43514252715217       -1.48313794515214       -0.16530110413712
N            1.58576350245119       -2.80474330702845       -0.34184034833057
C            0.23237178398441       -0.77009685197320       -0.01716334194561
C           -1.02171242870178       -1.44575714428970        0.28852427539799
N           -0.84492715023245       -2.59889645620650        1.03391490175395
H           -3.56202500863791       -0.42641739277876       -1.68122615137180
H           -3.07591765583207        1.81234130867179       -1.75365424106602
H           -2.59197436657754        3.95943461131376       -0.38482528904477
H           -0.33509054084364        4.88097127750110        0.76825819257415
H            2.06153220019099        2.64209416200433        0.49260645078247
H            3.68735792879427        1.89186098295964        0.24323787758692
H            0.77497820717180       -3.39362720901158       -0.43137534656332
H            2.50069376844266       -3.17900705194584       -0.52754289295214
H           -1.68896674957557       -3.02429134895316        1.39027414393215
H           -0.06496026249617       -2.60802587316370        1.67185043028886
