28
 energy: -49.859456115347 gnorm: 0.000784371443 xtb: 6.6.1 (8d0f1dd)
N           -0.07732725260556       -3.61759266678565        0.92562974255033
C           -0.03387926214005       -2.43897990743877        0.24919198646923
C           -1.19434181828945       -2.09580129887296       -0.49800318964963
C           -1.79522118117895       -0.87168833294224       -0.68328096776548
N           -2.97095994214112       -0.87801769797939       -1.39368429444917
C           -1.47661170454990        0.39051179730121       -0.07826615083163
C           -2.42645415416221        1.38497551990537        0.17180071578178
N           -3.79982698261637        1.34333943092401        0.02487032396994
N           -1.86759800723818        2.54786904953828        0.62279575926688
C           -0.57263616691996        2.36408202344261        0.61570461154926
C           -0.21150600478084        1.03433073368137        0.23805917646279
C            1.10479736036760        0.64200578636181        0.14960184639673
N            2.13669346145227        1.49371471913089        0.10913567954796
C            3.19513102421851        0.72672605913618       -0.19532989185757
N            4.41083067470823        1.24548825228621       -0.37449918997227
N            2.97475762981918       -0.60286116590802       -0.31524285669139
C            1.68185943438330       -0.74258605205571       -0.04335560888585
N            1.14672062876911       -1.89385350557571        0.21240457034477
H           -0.94966878942082       -4.08755111751508        1.08152651585083
H            0.73735209926570       -3.89677412237789        1.44390378299050
H           -1.74639785140451       -2.94864766474785       -0.87805143118349
H           -3.15783461329276       -1.67935249778564       -1.97296226643307
H           -3.31297632983125        0.00813545508646       -1.72549842602985
H           -4.23067757735843        0.45585837316665        0.24209196885241
H           -4.23803531563186        2.12898158088515        0.48532929217721
H            0.11670575765295        3.12569207434295        0.92508047848196
H            4.54101551004651        2.23481563142299       -0.26791771083791
H            5.16496045457808        0.64151452417245       -0.64504920920548
