33
 energy: -58.838322548162 gnorm: 0.000807366313 xtb: 6.6.1 (8d0f1dd)
N           -4.51970657909860       -0.21199227594012       -1.33762490338192
C           -3.49554843138267       -0.67129387270780       -1.07930439431518
C           -2.26648911108193       -1.25119971307123       -0.76496851174354
C           -1.86777725840475       -2.51327969805152       -1.16635727240496
C           -0.51839424883437       -2.69986392125814       -0.81198383166859
C           -0.00518404196914       -1.52637792402676       -0.29814989264334
C            1.27991784042641       -1.46724163495122        0.32751030102453
C            1.67796275741066       -2.69734753565887        0.89105389897090
N            2.00873568867587       -3.68913356311780        1.37168627879704
C            2.23959617773129       -0.45869131693364        0.33215604861058
N            3.43860001521951       -0.71800632089321        0.91049731028564
C            2.15189665086841        0.81535785503576       -0.34008668981633
C            3.35863710525338        1.21147812995443       -0.94432560173343
N            4.34572079945901        1.53514166262584       -1.44149251442748
C            1.12143721241186        1.75051996388593       -0.34662708797907
N            1.33888275683544        2.92052196052476       -0.99033481795703
C           -0.11294779440879        1.69087593709561        0.38934456565110
C           -0.68443467890907        2.82396568142226        0.95065379271896
C           -1.97468941276927        2.54106339075426        1.43915765286724
C           -2.29260862388092        1.25084412877868        1.09570506509811
N           -3.35782501191120        0.54182538624993        1.53763674596405
C           -1.13011947323740        0.65952337344893        0.40198857847784
C           -1.12022057316549       -0.56465241535670       -0.21048937516019
H           -2.48583166997645       -3.22663873927587       -1.68090094421562
H            0.03595964906046       -3.60890019606162       -0.95355592210043
H            3.64472879634398       -1.65055177695713        1.23139410431702
H            4.20413951672768       -0.07811826235248        0.77961739696289
H            0.61854241022889        3.61907122439877       -1.01644192066726
H            2.21211555222258        3.09219513595356       -1.46031070417808
H           -0.19837397150678        3.77875028460779        1.05220348492404
H           -2.59665991939273        3.22091976055991        1.98871219445681
H           -4.11764659190306        1.06346633391421        1.94172197048756
H           -3.60608850304404       -0.31843045939714        1.07778555487787
