31
 energy: -55.395162273521 gnorm: 0.000571154095 xtb: 6.6.1 (8d0f1dd)
N            5.97910173486339        0.64595528188206        0.38952497809656
C            4.87932767966838        0.39394708929588        0.16791871036298
C            3.53279612394679        0.11899306703830       -0.07484469169913
C            3.00370664449326       -1.05992464109093       -0.68260552365974
C            1.62884945344554       -1.03889055743185       -0.65105043073908
C            0.87680768356317       -2.09581245063338       -1.22512193104114
C           -0.37459603776690       -2.57250654152131       -1.02545927590032
C           -1.43386896443376       -2.17540904196591       -0.14610777296274
N           -2.19428831264606       -3.20513518151088        0.29846692643205
C           -1.82206816332161       -0.88508208387830        0.21833745779815
C           -2.94848222285043       -0.81460601740587        1.06926044166862
N           -3.80850934808059       -0.80550901457104        1.83267902524777
C           -1.34520680902066        0.39614767212128       -0.19354516925505
C           -2.19121150445789        1.48984129237944       -0.29160092936756
C           -3.58818243406047        1.47180090238007       -0.34727912565357
N           -4.73223240341898        1.49617849133473       -0.45329557637677
C           -1.40452326645472        2.68438593166634       -0.45004428048859
C           -0.09283626613598        2.35953737771482       -0.34142052179779
C            0.03492669666670        0.92878549080744       -0.22689946734343
C            1.23337838117988        0.27972374700460       -0.12878276950249
C            2.47078748915978        0.94454177544275        0.26358447127035
N            2.56136392379869        2.14476158754187        0.88664062074805
H            3.61042095916872       -1.85710418475883       -1.07187424287134
H            1.48645682306244       -2.70945874761215       -1.88098127893523
H           -0.59589430911854       -3.50556620857714       -1.53269499957675
H           -3.01115216156437       -3.02976240623111        0.85999042685577
H           -1.99010495074591       -4.14720235681239        0.01685974143047
H           -1.82038190018717        3.65773180540913       -0.63495352941168
H            0.73388837990316        3.02498773567889       -0.50118732778233
H            3.46044747264439        2.39897090463553        1.26388597725113
H            1.74655933620058        2.51702975616689        1.34504821380341
