32
 energy: -59.139195915104 gnorm: 0.000828918531 xtb: 6.6.1 (8d0f1dd)
N           -5.41806918709849       -2.13361125612887       -0.90574945309034
C           -4.40047237489254       -1.66291000836464       -0.65023112130025
C           -3.19364304265107       -1.03614862088047       -0.33563316444510
C           -1.92264984347041       -1.56800822425852       -0.38669565462849
C           -0.97797848506419       -0.56015704035081       -0.04313055231407
C            0.37822890108933       -0.84377758163999        0.11166942454289
C            0.85656803479759       -2.15044769538113        0.29913010203358
C            2.23583417801497       -2.13093871744816        0.43476246505053
N            3.06107976295339       -3.15175681855204        0.70190971583778
C            2.68281497758966       -0.76745285765110        0.25609814232402
C            4.03002959521351       -0.42126185730309        0.35651040729548
N            5.15680488468649       -0.24921849168902        0.51337990101596
C            1.57662800233986        0.04327060679924        0.05219046154625
C            1.68527625415562        1.37348861239820       -0.43076195840944
C            2.89818013121859        1.70442955001564       -1.07922169774536
N            3.84053786835417        2.00499102252002       -1.66179603246839
C            0.75602581446908        2.40767429187959       -0.40652919031751
N           -0.28700690074850        2.56405868680527        0.35920064269285
C           -1.24992166724538        1.85141617850484        0.84353070192522
N           -1.96255047590539        2.39922577323741        1.85641540190457
C           -1.75130777255141        0.63178244720941        0.26858424433611
C           -3.09536969498847        0.32586978134055        0.12162686972790
N           -4.18277382030615        1.12066878578840        0.38475044008064
H           -1.68098904897028       -2.56100080739983       -0.71214407942174
H            0.24508500021056       -3.02477488262462        0.40688485834847
H            2.70804528467993       -4.08719561363629        0.79740427451160
H            4.05000414021529       -2.98491621259182        0.78296606954439
H            1.01244673870657        3.29871278893958       -0.97488395073132
H           -2.66925434159207        1.85351594014163        2.31602080880155
H           -1.60073006933958        3.21930020610980        2.31295947367098
H           -4.03032111081219        2.11697462109019        0.35567944888097
H           -5.04862315275682        0.81736735992139       -0.03647531390059
