31
 energy: -54.600871109445 gnorm: 0.000729706945 xtb: 6.6.1 (8d0f1dd)
N           -2.70804204969785        2.39874064851548       -1.29337137860071
C           -1.85074638094401        1.87108287384173       -0.73624588225262
C           -0.71267035322338        1.25923349805728       -0.15881501878647
C            0.31423178485831        2.17671278310976        0.19851952925416
N            0.00198902298173        3.48809243511308        0.01837930826327
C            1.53661927548920        1.96317455006321        0.85114957077275
C            2.46545818899825        0.93455490273721        0.87763881523623
N            3.56503350369100        1.14111689228310        1.64446824364852
C            2.49726398858702       -0.26742982232111        0.11157358768633
C            3.67851420628178       -0.86164841218024       -0.32539771993954
N            3.46296895886242       -2.02987587367893       -0.96247234828907
C            2.17287907592018       -2.27454383380271       -0.87269323853808
C            1.46218366533675       -1.21224951404452       -0.24690810073163
C            0.08993191110607       -1.24861795396338       -0.01243843003490
C           -0.64649309493553       -2.42848291107090        0.02634189695299
C           -2.00432487423065       -2.12781031966561        0.15775733352296
N           -3.02268536928596       -2.98584407396094        0.29351972801994
C           -2.15009518541057       -0.70210676861749        0.13971964420625
C           -3.39208861387878       -0.09745081651298        0.32443999147994
N           -4.45686693029068        0.28622713284739        0.53587515284402
C           -0.88041148183125       -0.11997258280630        0.05136254538099
H            0.65730268162568        4.20480405522585        0.27114607415901
H           -0.89339560905532        3.75777700420834       -0.35174371997034
H            1.89098207244881        2.85985089250546        1.35437726240862
H            4.30381248658730        0.46153826311904        1.64025588832508
H            3.71701807765543        2.02140532792591        2.10549291773037
H            4.67699167996881       -0.46198328756360       -0.28023187661376
H            1.74461201572353       -3.15058725474552       -1.32240156132826
H           -0.23408237311224       -3.41844672845939        0.00708146981484
H           -3.96115411251265       -2.63533438563218        0.38956014680174
H           -2.86096177531339       -3.97715587702730        0.30518144847708
