30
 energy: -55.677540601269 gnorm: 0.000958445378 xtb: 6.6.1 (8d0f1dd)
N            4.93370062486416        0.10164107456872        0.60579597917377
C            3.86600288812127        0.51622811358340        0.51187019208841
C            2.58390106793949        1.06128316484368        0.41248553395131
C            2.23303109352528        2.36756626192457        0.76160979763543
N            0.93354864109517        2.60550154060776        0.58198279897593
C            0.34788844561704        1.46388836713365        0.21768176358817
C           -0.97867654751097        1.52973558508471       -0.23221490108513
C           -1.35507126402170        2.85611069428108       -0.57055358296236
N           -1.70181135747940        3.90168712097732       -0.89244188279969
C           -2.02527157368738        0.58380450668084       -0.28353029729069
N           -3.20718391709927        1.02132896002183       -0.77241365282889
C           -2.04199066237100       -0.73027683003736        0.27730632829852
C           -3.31618935346001       -1.09600966487145        0.76608102270893
N           -4.34801937908341       -1.39970986253936        1.17394129669485
C           -1.08835707917113       -1.76009992666099        0.32160363884404
N           -1.43903364019116       -2.89730060524444        0.95612824304608
C            0.16012357923623       -1.82986700523205       -0.37320940650717
C            0.62238706986514       -3.00550279110498       -0.93419402549502
C            1.93916825550782       -2.80864521513967       -1.42329590670534
C            2.34440976871108       -1.54769744923619       -1.08932848323088
C            1.26414827452844       -0.87066182447632       -0.44828899393254
C            1.37046251398547        0.39212727850440        0.09665575914942
H            2.88299010422750        3.13501760542147        1.14087602437226
H           -3.31919463883053        1.99414616666653       -1.01167276948399
H           -4.03053522552581        0.44610055592447       -0.70176862992044
H           -2.34935605494688       -3.00257388114215        1.37366318240546
H           -0.80291772812011       -3.67484850601139        0.96426480951483
H            0.05885719495272       -3.91375874274491       -1.05594359103643
H            2.51123567723260       -3.54381734705756       -1.95761902525564
H            3.29352885858710       -1.09969510142561       -1.30928613931307
