30
 energy: -55.686734487842 gnorm: 0.000737317072 xtb: 6.6.1 (8d0f1dd)
N           -4.01962694190253       -1.20826685425396        1.94054749491014
C           -3.16205558506603       -1.19672003862598        1.17974109620469
C           -2.06466949951671       -1.19424785977967        0.27934696858011
C           -1.53373739363171       -2.39226396477682       -0.02712754999186
C           -0.43212876508567       -2.73614944306674       -0.89739791268561
C            0.78797039770101       -2.19809214783307       -0.99738740232364
C            1.39112279670148       -1.03997406462606       -0.36594660497400
C            2.79259018972898       -0.98246611671824       -0.15484499114800
N            3.65537525668060       -1.99327120220169       -0.26739505961025
C            3.18157411362208        0.35364954754023        0.20470418234973
C            4.48354881745204        0.75371137533273        0.49440123248829
N            5.56811103131778        1.05928311202818        0.72731175006106
C            2.04096255154288        1.13884954722654        0.16314789825951
N            1.89267229591034        2.43036529853087        0.38492381677923
C            0.88092147349501        0.24853643735113       -0.14768746123053
C           -0.40230890905694        0.77660220219965       -0.21160080986382
N           -0.56793267390129        2.14574838967484       -0.36557307300330
C           -1.84315104961967        2.37800279057700       -0.47904371027961
C           -2.61071751871829        1.17428788573198       -0.33192054833142
C           -4.00421885368286        1.09847141484203       -0.40875188454387
N           -5.14683592323977        1.07410659792407       -0.52021038498743
C           -1.69144541850978        0.14705416391322       -0.15869871305968
H           -2.03517508514806       -3.25822307579655        0.39511538203271
H           -0.61677630625274       -3.63884470971327       -1.46934136236830
H            1.47734922239463       -2.70918368276810       -1.66456215265199
H            3.33705459451419       -2.91787126029713       -0.50140415887151
H            4.63519386715090       -1.83862347432309       -0.09588032181204
H            0.94829041668810        2.79093789748232        0.16803547574573
H            2.68661196781911        3.01628634053932        0.58628783995465
H           -2.23010445388698        3.36597556138652       -0.64804385112952
