24
 energy: -42.972837393022 gnorm: 0.000702753260 xtb: 6.6.1 (8d0f1dd)
N           -3.67170732539399       -0.46021935292391       -0.01598226468785
C           -2.36360966846987       -0.84682134083034       -0.15336361255688
C           -1.96555286877439       -2.20864206545635       -0.37637145788160
C           -0.61151976296945       -2.26897190741352       -0.37817935235708
C           -0.07893914023383       -0.93819520853285       -0.23794720217303
C            1.27010065856542       -0.72662827654227       -0.12287429272651
N            2.15076740200697       -1.73045509262627        0.12482280519799
C            3.25236691764161       -1.12071208852402        0.50875340636597
N            3.26035864708247        0.22642944695444        0.49432129628298
C            2.06685865850173        0.55732057413085        0.02159254808417
N            1.77041653603453        1.73026990303045       -0.46172624213945
C            0.66127781298847        2.30702669687121       -0.78548486606446
N           -0.48831307017315        2.27874198014940       -0.15634903842346
C           -1.22247800115503        1.32824084435121        0.33599684312502
N           -2.21355517708822        1.72153709060315        1.17749818731144
C           -1.22709036855345       -0.04993757479879       -0.07847906298761
H           -4.35350053703023       -1.10148898957626       -0.39060818774522
H           -3.87485901673304        0.51334924948510       -0.18332605939553
H           -2.65392531828087       -3.02502309239571       -0.49913416245575
H            0.01573631817834       -3.12945109801291       -0.50118115689596
H            4.12002603933904       -1.67184567881604        0.82641982274612
H            0.74719101267243        3.07974707990187       -1.54702904096802
H           -2.15715755964021        2.65645237095533        1.54691578381676
H           -2.70268200121538        1.02554297431609        1.71273884292798
