28
 energy: -45.851409418815 gnorm: 0.000775141226 xtb: 6.6.1 (8d0f1dd)
N           -4.14345462227174       -1.31414288651736       -0.12615169060365
C           -2.99043229875245       -0.59996110734328       -0.09368293597924
C           -2.90387749739040        0.82757187903758        0.04991938001769
C           -1.57402565117041        1.14904507173351        0.08150497237164
C           -1.15811862666765        2.51134962727360        0.28829890340287
C            0.00432355113739        3.17500661837288        0.15011377596416
C            1.33717859920716        2.82164751508267       -0.25205420762840
C            2.01627584312414        1.65830608722535       -0.31326239892808
C            1.69369789737125        0.29057878608042       -0.04853421376334
C            2.70074177091531       -0.68048905062242        0.05026498771800
N            4.04366511329963       -0.50044335189876        0.03268241302310
N            2.22602998396561       -1.96508913394459        0.14692204332504
C            0.92198598118508       -1.86446276590940        0.08310171847529
N            0.07949219161963       -2.88585206390384        0.13763552414633
C            0.46657452720523       -0.44573018676925       -0.01133989124400
C           -0.86611596240913       -0.12916958353524       -0.02878415805505
N           -1.80407696520716       -1.15331677169845       -0.12166045792222
H           -4.99273313097017       -0.82958773524732       -0.35860246497949
H           -4.07839483136106       -2.28054035481651       -0.39781311689101
H           -3.74249898036275        1.49483771045710        0.12023472650848
H           -2.00246736798712        3.12629393122584        0.58612884590568
H           -0.07374380028391        4.23982779044396        0.35312845721611
H            1.92368800250123        3.69898974055503       -0.50634940467493
H            3.05265863337964        1.76770987671049       -0.62244435272065
H            4.41721921511296        0.40420545046526        0.26095729757225
H            4.59301541979976       -1.30602437709973        0.27912565727622
H            0.43452634450941       -3.82088287454564        0.23014579048328
H           -0.90851763789963       -2.61635534941194        0.05314765598400
