25
 energy: -43.474398527876 gnorm: 0.000900460307 xtb: 6.6.1 (8d0f1dd)
N           -4.36544534029183        1.25550017143753        0.73691537608645
C           -3.26505577595140        1.09312052084783        0.45094719621382
C           -1.90813278217768        0.91063960733494        0.10271336320621
C           -1.11997413073274        2.03734097337578        0.19994215791976
N            0.03982713596706        2.31672715138825       -0.35975935174934
C            1.17151403033607        1.76191804691706       -0.55745895982842
C            1.71409832874838        0.56221537946525       -0.03223980421854
C            3.07927156982892        0.32745239165420        0.11939241696465
N            4.08066155618052        1.23025582507244        0.04304366530200
C            3.28061267559774       -1.05989856537060        0.46068358103507
C            2.08306531459753       -1.68369207966965        0.44482247227858
C            1.03971382919722       -0.71549709641200        0.15983256126401
C           -0.24548941424564       -1.13476714481799       -0.05319922218605
N           -0.46242282745316       -2.49647101316617       -0.14679484943357
C           -1.73041824868634       -2.66752709635977       -0.39135141403092
C           -2.45944648450956       -1.44377976180767       -0.41851673775358
C           -1.54753148713544       -0.43850504821879       -0.21063975876225
H           -1.57937813781903        2.91442769688112        0.65148034704674
H            1.84031395130853        2.35563947590024       -1.18303860193577
H            5.03242980138929        0.90983039897056        0.06643558687698
H            3.90194533992327        2.14841273115416       -0.32448389785425
H            4.24293944539581       -1.49800137691540        0.65341851988068
H            1.86866736486987       -2.71829363486802        0.62384234032296
H           -2.13227648852817       -3.65308898784594       -0.55104982042718
H           -3.51726795919992       -1.33960176525023       -0.56372873311466
