30
 energy: -54.911949183678 gnorm: 0.000807346673 xtb: 6.6.1 (8d0f1dd)
N            4.26390082145595        1.85748019479084        1.01668851942619
C            3.36259016349795        1.21789528936974        0.69556395904908
C            2.31105602042073        0.38629216932294        0.32151223974915
C            0.98840932018370        0.76393357191058        0.03769690541518
N            0.64506819641959        2.00217069415548       -0.15804297110488
C           -0.49518732228943        2.62838160423452       -0.31118409387129
N           -0.50149093339502        3.65421499569374       -1.19027104929043
N           -1.57430370289931        2.52236857850728        0.46557755765108
C           -2.26579430094854        1.46902947797864        0.75872124600353
C           -2.24600361058004        0.17046577675217        0.23413137566953
C           -3.39379109978416       -0.64691880066010        0.26136983462109
N           -4.64747612709123       -0.28853446950526        0.64760715283346
C           -3.07880626501044       -1.90421009806890       -0.31544874971757
C           -1.74974033434360       -1.91937360267594       -0.62751559339858
C           -1.15537194828123       -0.65962035337890       -0.30728347775677
C            0.21548439467615       -0.48493283463496       -0.27005864063026
C            1.18742739447476       -1.51873398820616       -0.34223233008945
C            1.05229006270411       -2.87002858728940       -0.64169621911586
N            1.06338563960893       -3.99848077623233       -0.87871672329419
C            2.44283569188606       -1.00287703722658        0.06062523253410
N            3.57210550728114       -1.70956927393939        0.17942892211449
H            0.36958641881713        3.92850921114639       -1.61052767873302
H           -1.25935878720798        4.31301409484913       -1.15605499138729
H           -3.07782144897914        1.69200289273043        1.45119552462299
H           -4.76116798369400        0.52106283768308        1.23453831805285
H           -5.31592404020620       -1.02937275909459        0.77706138083624
H           -3.78084482655420       -2.70450546694131       -0.46153608659229
H           -1.21761984689290       -2.74663889459793       -1.05430419603231
H            3.58073064359800       -2.68788978377706       -0.05536397459554
H            4.41384768445662       -1.26482972817748        0.50326548910790
