29
 energy: -50.360053038805 gnorm: 0.000735304761 xtb: 6.6.1 (8d0f1dd)
N           -3.80095662743574        1.89751532955154        0.88999795690135
C           -2.79327803229679        1.47091844240558        0.52758323141651
C           -1.55669271689154        0.94957303713502        0.09789576773511
C           -0.77392096693606        1.92503316308586       -0.61447465667882
N           -1.51020317580512        2.87448142695373       -1.25763565983461
C            0.59795067415622        2.11496758010395       -0.64549984578583
C            1.67349402945219        1.42562470328927       -0.10156088162254
N            2.85659234095720        2.03757197195838       -0.00297464965881
C            3.70892780448789        1.08622993367081        0.40767841963123
N            3.22294457011434       -0.13322461026437        0.51174705104980
C            1.90155915180486       -0.00947752435293        0.22277394155725
C            1.11307793705682       -1.11638837825352        0.02497256560896
C            1.70700902628084       -2.40989711699225       -0.14586194794415
C            0.72596426572472       -3.31547946322800       -0.39759982065084
C           -0.53888548304355       -2.65427060954022       -0.31037913110573
N           -1.73467340760670       -3.32077520279327       -0.46570753934847
C           -0.33177483114026       -1.29630400458168       -0.05389991659177
C           -1.38078679934033       -0.41665667319691        0.35591015343778
N           -2.41355898811977       -1.04525822109348        0.98180409543732
H           -1.05197366329493        3.70771686957056       -1.58526192730954
H           -2.50785415038045        2.91192043329448       -1.12744056893543
H            0.91003499171858        3.04931693749650       -1.10105091212236
H            4.73731356102112        1.31243115847379        0.62711599206439
H            2.76682412122462       -2.56768209806329       -0.12538866750722
H            0.84533245400322       -4.36024096648508       -0.62060992267300
H           -2.52439381308045       -2.76338831161702       -0.75509495419841
H           -1.66135648535389       -4.20607429525481       -0.94363390807481
H           -3.17157840573849       -0.50155328889293        1.36115373610809
H           -2.26747962603842       -1.97369141847960        1.33795019159477
