28
 energy: -51.447942318667 gnorm: 0.000717545300 xtb: 6.6.1 (8d0f1dd)
N            4.66196370803760        0.72263817596193        0.04164327637825
C            3.61252346146731        0.26184234909314       -0.01245951889663
C            2.34780583422361       -0.36727983877052       -0.06158167941924
C            2.37117900466946       -1.77349429579217        0.16585161303004
N            1.60540219775211       -2.67222203628431       -0.31360826285976
C            0.41797007527365       -2.77731173336075       -0.86254519891568
C           -0.74281411787773       -2.17224749350145       -0.44154947113709
C           -2.00520589717998       -2.80381201972437       -0.52055393821781
C           -2.91860056342020       -2.09103069188812        0.21967011002541
C           -2.30179302278405       -0.92056017506717        0.71228532755560
N           -2.88947448909639       -0.09183897318117        1.60498259914402
C           -0.95241521504902       -0.88332976428090        0.25473951930030
C           -0.20527287932614        0.28032815306088        0.06422095978465
C           -0.70350834280057        1.59770333401357        0.05019357120562
C           -1.98904952368177        2.11066607601290        0.12917570409149
N           -3.01456669723841        2.63768598449052        0.17787217431832
C            0.39165298994745        2.45378155759453       -0.30282958197071
N            0.32505101475713        3.77322168231852       -0.48306695712687
N            1.52675041819017        1.77579486401203       -0.43900543291548
C            1.25922112002714        0.47845343598196       -0.22343260118711
H            3.22330802312897       -2.15224161461026        0.72650697891214
H            0.33284919714183       -3.62209045283064       -1.54074361107083
H           -2.18056671077394       -3.74250691959967       -1.01259953953921
H           -3.94412562791483       -2.35723773541553        0.39791627204554
H           -2.45407718144520        0.78406513008304        1.83758027326947
H           -3.89263972074225       -0.11568462639923        1.67793519087337
H           -0.55155380564836        4.25878536359490       -0.40325346071758
H            1.15385643776237        4.26168369638784       -0.77444425895978
