31
 energy: -55.407128244213 gnorm: 0.000789575122 xtb: 6.6.1 (8d0f1dd)
N           -5.53988193552070        0.73719759567275       -0.92142583832743
C           -4.45542735759270        0.48169314362705       -0.64173000986174
C           -3.14295011245095        0.13660630651332       -0.30149513151414
C           -2.73347072839883       -1.13706733582141        0.13754097111103
C           -1.34756004671273       -1.14288992919945        0.28414619456164
C           -0.67482909904219       -2.30061296325117        0.75856565842987
N           -1.42193922871082       -3.11026172609594        1.54476544591969
C            0.57344374761331       -2.82295580112534        0.39637995552191
C            1.68204303027080       -2.35718266114364       -0.29642995033067
N            2.54887763577468       -3.30907942304146       -0.73443477643915
C            2.16383454665849       -1.03099335821592       -0.48210222398813
C            1.70887764274919        0.21928901876395       -0.18928133699319
C            2.63867624156432        1.32862468171625       -0.21697808862483
C            4.00683820129146        1.18946803468794       -0.45421816194051
N            5.12627288779407        1.03540665620976       -0.66976211182498
C            1.96440985162912        2.48599999974735        0.09921066983873
C            0.58950075102532        2.18081702156810        0.26298556943053
C           -0.34709522426439        3.15263282382365        0.63168743865808
N           -1.05965900631623        3.99137191476789        0.96338291106169
C            0.38508575213646        0.80398005548223        0.08752480086384
C           -0.88621115541030        0.21471878599869       -0.01760181071224
C           -2.02156458193418        0.96590320862469       -0.34832058994624
H           -3.39569500156071       -1.97909017128116        0.23291612129336
H           -2.33272170039296       -2.81520819348083        1.84676014970563
H           -1.08261545943785       -4.00904833477111        1.83914690459277
H            0.66536495356669       -3.87330756341130        0.66309777891800
H            2.35948117920670       -4.28491488301818       -0.58931682483314
H            3.43411379092360       -3.05148294542660       -1.13306699252934
H            3.19103493141760       -1.02573619005486       -0.84179047111719
H            2.39486349778908        3.46487371456170        0.21054307884777
H           -2.02938016736743        1.99534138297222       -0.64880693037011
