25
 energy: -42.680238518776 gnorm: 0.000723617658 xtb: 6.6.1 (8d0f1dd)
N            4.21819822287881       -1.38670107136489       -0.41400125250157
C            3.05568448974498       -0.75673757091572       -0.17935108388736
C            2.85936640430512        0.64336085502808       -0.26701792309644
C            1.55442651594859        0.92006299282239        0.07686843261640
N            1.11861494731066        2.10401622236557        0.43873806960043
C           -0.04721027469712        2.64175342238294        0.57370976220587
N           -1.13514491941358        2.50931391958212       -0.15393444318663
C           -1.77232938205128        1.46021427768821       -0.56864449326239
C           -1.66654236080883        0.13268036505547       -0.14236433006202
C           -2.73221810448922       -0.79242426355365       -0.19960815219941
N           -4.01558838797808       -0.56945065542659       -0.59247700394908
N           -2.35917542591419       -2.03043368975293        0.19859322110417
C           -1.06396278780472       -1.96889257089591        0.44949064045095
C           -0.51697616642151       -0.66803616815010        0.29350264813715
C            0.85044512251785       -0.41839133007193        0.26348902187295
C            1.84911800300834       -1.37992826238989        0.18235164891905
H            5.01748336334274       -0.87324700235484       -0.73929626713834
H            4.28309327975459       -2.38506061181318       -0.32407016464303
H            3.61736028292880        1.36879831510741       -0.49058978873187
H           -0.07857214272410        3.48937923331290        1.25953663810793
H           -2.59376100947503        1.68956296069147       -1.24643390332486
H           -4.66630561980868       -1.30141549432875       -0.36059982414908
H           -4.36771074029709        0.37143639594476       -0.58573653595142
H           -0.53698896451858       -2.84702510794999        0.77272291365544
H            1.71769257876155       -2.43977020541301        0.28366811501334
