28
 energy: -52.227087782786 gnorm: 0.000824497664 xtb: 6.6.1 (8d0f1dd)
N           -5.18422467535990        0.20307664883546       -0.53861933854189
C           -4.08162518383926        0.37324996775231       -0.27748437565515
C           -2.72245209033964        0.68223698159185        0.01889896821392
C           -2.52290801191175        2.07273134820948        0.21858288238445
C           -1.48925644959263        2.80957660846083        0.71441881968824
C           -0.13617070001433        2.53356179485462        1.01925044762548
C            0.74043636137025        1.54611970581813        0.66928508235171
C            2.13108962693372        1.80307372063913        0.78164688526917
C            2.82874075576220        0.84860047007301        0.06977115646590
C            4.21030986781241        0.81364630289956       -0.15924443015577
N            5.33872685181964        0.76421342266840       -0.36388949528216
C            1.91014177072789       -0.13758419067998       -0.42385564279849
N            2.28893165333428       -1.10063890164307       -1.28780598127790
C            0.61543682007183        0.20811809459913        0.01157248736142
C           -0.45592041857259       -0.68423959410206        0.10393668075554
C           -0.36270139287444       -2.09054071863441        0.10253140965916
C            0.75801673317051       -2.90818032050502        0.22815787741151
N            1.66212763941773       -3.61253417089480        0.33319503346600
C           -1.68978422736957       -2.58856600173793        0.15310799232031
N           -2.58339163967988       -1.63183152146432        0.12043047752483
C           -1.92615405776486       -0.44293515600705        0.12348853778010
H           -3.42847560077935        2.64083249901245        0.02930934962659
H           -1.74465777691168        3.84728599164296        0.89873742805318
H            0.35076912853045        3.36743504853643        1.51630561736874
H            2.56033331325983        2.66894324272115        1.25032493083004
H            1.65652103833140       -1.84191378976987       -1.53512816031897
H            3.27200210588325       -1.30164888995197       -1.37242240796501
H           -1.97749546631856       -3.62183037342527        0.22689899573994
