26
 energy: -42.391967922952 gnorm: 0.000546752130 xtb: 6.6.1 (8d0f1dd)
N            3.33219886146744       -1.36661339681750       -1.09925535966742
C            2.33542756127646       -0.97492337621040       -0.26502186938898
C            1.72349469302993       -1.98981576676169        0.53762814581429
C            0.40467539225819       -2.12719444415143        0.85267900173165
C           -0.76686049866538       -1.45408245644927        0.45826947607847
C           -1.99758592330099       -2.08323051728225        0.59240712163605
C           -3.02409447805945       -1.28362388278101        0.06576616660089
C           -2.47789476665899       -0.08656360818801       -0.34769718809506
N           -3.16449399326655        0.96739475704531       -0.90116402937175
C           -1.05823593298739       -0.10371799787698       -0.07955413919285
C           -0.29015174839993        1.03194498862875       -0.03291411858160
C           -0.71596006249303        2.37524529126038        0.07244808950906
C            0.38866472724625        3.10170921099148        0.46254230972985
N            1.53645679344676        2.38988064920936        0.49478252947430
C            1.21315548059903        1.15007193318959        0.15845996343894
N            2.12753521514351        0.30001199110829       -0.19876560439204
H            3.69392634221389       -2.30160309243705       -1.04889837484722
H            3.88365034705153       -0.65443762657636       -1.54600755457504
H            2.38864601337615       -2.78685874334619        0.84536217356969
H            0.17745442413352       -3.03032590858448        1.41210419260773
H           -2.13831980093146       -3.06972934979391        0.99747516890049
H           -4.05927697527138       -1.56297318460985       -0.01196975490639
H           -4.09107163431949        0.74431633119958       -1.23039583928999
H           -2.63558711867473        1.56651259274194       -1.51522233326626
H           -1.72193109165160        2.74137370651115        0.03613905681336
H            0.41138723073750        4.14439952368062        0.73094417006956
