31
 energy: -54.606654693490 gnorm: 0.000544999345 xtb: 6.6.1 (8d0f1dd)
N            3.29097703899317        2.70251798873993       -0.36509190641950
C            2.17241652462180        2.43506193576794       -0.28644014001022
C            0.81272433574872        2.14846589922395       -0.19464829755894
C           -0.17886058970113        3.04710191153726       -0.54061528984397
C           -1.41716778359505        2.38326740919566       -0.54678232734105
C           -1.22749163505147        1.03572219921282       -0.30623357623768
C           -2.31848148453455        0.15375503492123       -0.04474659238814
C           -3.51281694017609        0.77000660864847        0.35934060342997
N           -4.51017751866487        1.23965459117403        0.69444558358266
C           -2.34593551883825       -1.24670580514422       -0.11801802419121
N           -3.37444086625151       -1.91013358082083        0.47337678713627
N           -1.55668009392780       -2.02510344557318       -0.85922045613480
C           -0.28989450447213       -2.19506165556523       -0.96800744368088
C            0.76521511807062       -1.65234367212779       -0.21240990139672
C            2.01141662211091       -2.28864705323487       -0.03989733267143
N            2.33131175218885       -3.54005977974667       -0.43589467460113
C            2.86921457412614       -1.45867970050633        0.72480061751266
C            2.23065368753644       -0.26688548601758        0.95467187491258
N            2.61222363004817        0.69143817914346        1.82571388140786
C            0.91487684296979       -0.29797161492178        0.29151771668694
C            0.20966823040499        0.83085941591836       -0.04290473587678
H           -0.01823518738783        4.08036358537581       -0.79133662804032
H           -2.36709924405833        2.84776914894826       -0.73569593063582
H           -3.50803257737815       -2.87966913304535        0.24389467840417
H           -4.15674831606658       -1.38431803181413        0.82678171706498
H           -0.02569129265888       -2.95191166085418       -1.70771471132121
H            1.73249054527887       -4.02435139620656       -1.08176907820430
H            3.29439428836457       -3.82465157981387       -0.39256641278380
H            3.84536799649253       -1.73522151504954        1.07503457306322
H            2.12543867657197        1.57280556069795        1.81974612868097
H            3.58318036144418        0.72601747413068        2.08858076765686
