31
 energy: -53.807105818027 gnorm: 0.000879614995 xtb: 6.6.1 (8d0f1dd)
N            3.69606347126751       -2.62135237963636       -1.07976582274303
C            2.72694288142724       -2.14857156858620       -0.68347102026843
C            1.50403766897588       -1.60506106799268       -0.23496166831096
C            0.40864413618053       -2.45264397639329       -0.30752323500383
N           -0.74095212275891       -2.39055273074430        0.30534385349320
C           -1.61591576316845       -1.49705555223440        0.64967052655283
N           -2.56982551054938       -1.92595646876846        1.52851087208887
C           -1.81182494709746       -0.22407663854999        0.03580126162144
C           -3.05548180599074        0.34880160513267       -0.23748542733729
N           -4.28957971079394       -0.23534620890399       -0.06289207826004
C           -2.86217300611399        1.66186997484064       -0.73410503747339
C           -1.52055844882060        1.95309212768096       -0.69151847535032
N           -0.93912987580865        3.13245082891003       -1.09124570541527
C           -0.79928000525867        0.79323257263651       -0.19955563099306
C            0.53780134224577        0.82584735937526        0.15587583413839
C            1.28028862766297        1.99496329400727        0.42530692612695
C            2.58059526845176        1.59597289591524        0.68598559182470
N            3.64486360567209        2.34779597196856        1.03796089725613
N            2.74932693246377        0.24963516121153        0.49789272295348
C            1.57160517608838       -0.25839348267587        0.21522448671907
H            0.57012719864188       -3.40253907324112       -0.81443452222509
H           -3.14243697821372       -1.23335626899040        1.97908504189880
H           -2.37405640130926       -2.77521795064130        2.03288559496971
H           -5.03354099279173        0.18216564089663       -0.60032154788268
H           -4.29871899692386       -1.24410967713097       -0.06018841806148
H           -3.64510557195203        2.31492598755067       -1.07367346000505
H            0.02476883280723        3.05975301317132       -1.38138975370698
H           -1.51315418839376        3.70103203155860       -1.69541733438686
H            0.88644382483885        2.98013798399383        0.57463685029282
H            3.50501430619096        3.28902452847940        1.35950741883954
H            4.47141846783026        1.85456866335921        1.32872491404850
