33
 energy: -62.078936007854 gnorm: 0.000436814179 xtb: 6.6.1 (8d0f1dd)
N            1.58108417354073        4.36529992432878       -0.63319000339021
C            1.04766428316647        3.38625618421976       -0.34748356155534
C            0.31121066138541        2.23104860730053       -0.02590178626137
C           -1.09866322895458        2.39440666812170        0.00056587756979
N           -1.61500945681778        3.47190005596998       -0.63151651634816
N           -1.95266272430199        1.71218690512085        0.73341211107743
C           -2.22476295071548        0.46295205170610        0.94878307234513
N           -3.16282085408728        0.21878286851293        1.90053224885802
C           -1.78109784239914       -0.64526564271356        0.16580316542963
C           -2.56398784864092       -1.75622747386699       -0.16942227018711
N           -3.88680283279319       -1.96446095435362        0.10256946585836
N           -1.86190876837974       -2.70329485069069       -0.83845906668698
C           -0.60607108105675       -2.29136877030412       -0.87133802312062
N            0.29756112884317       -2.95388937669745       -1.61502810279566
C           -0.43454044996666       -0.98192627437099       -0.23615579910057
C            0.76825296397438       -0.36461807196870        0.05423910162702
C            2.04660840295390       -0.98437709306106        0.16101704516958
C            2.41405659009755       -2.31676851368505        0.22771932881611
N            2.80749246831109       -3.40177883396908        0.28786207137685
C            2.97564962646924        0.05296528357783        0.41273036473600
N            4.28905285596455       -0.08229054777461        0.63672459829098
N            2.39118500407505        1.26315626051156        0.40182179764409
C            1.08515963778341        1.08336363401536        0.21862498411840
H           -0.99467501388103        4.16903797521255       -1.00928620385797
H           -2.58333938009948        3.69953402264960       -0.48725166890917
H           -3.40449975769631        0.97455984266462        2.51970303414662
H           -3.27668866043194       -0.72409856464538        2.23091741990070
H           -4.29299606030675       -2.71507032440865       -0.43454607561855
H           -4.46327969035451       -1.14412647356475        0.20649345199743
H            1.28223474753852       -2.82620150818174       -1.45168644154266
H            0.00083109197087       -3.85889350534031       -1.94196408132639
H            4.82466875759149        0.73853218762179        0.85525721757909
H            4.70549017791599       -0.99455967393553        0.69300801555867
