29
 energy: -51.154334455001 gnorm: 0.000589631331 xtb: 6.6.1 (8d0f1dd)
N           -5.39409618436540        0.28401546537765       -0.65688560903592
C           -4.28734439590322        0.57010569170163       -0.53014394380362
C           -2.94593214820683        0.92165050824040       -0.39227039162982
C           -2.36999374974346        2.16614934005233       -0.67605955539641
C           -1.00582705546587        2.14695946092842       -0.39920032675400
C           -0.63106643515242        0.85709519790825       -0.00977708527655
C            0.65075076919663        0.33316654684119        0.07148698409855
C            1.81690201403253        1.16117701463467        0.12668012389331
N            1.85156395028585        2.49794610052370        0.40083831560583
C            2.94055076805110        0.36691616951851       -0.12906743766623
C            4.26444242692191        0.80458994022886       -0.09300654294729
N            5.34773115849218        1.18913896122760       -0.05073361192939
C            2.50232585693880       -0.95071832665781       -0.38039583336163
C            1.12676901075912       -1.03687442013774       -0.20836909045903
C            0.47293205308943       -2.29963700795729       -0.32895404523494
N            1.09101243447804       -3.21531050880361       -1.10730111407441
C           -0.56947113080508       -2.79119631499982        0.47727099001696
C           -1.55640055833661       -2.09540265376371        1.14914183327459
N           -2.14047958874569       -0.99971856604392        0.76559522033582
C           -1.91720739275454        0.07890418030941        0.10764284607525
H           -2.91166754205809        3.01181122579860       -1.06255686208892
H           -0.34231953229059        2.96554048722854       -0.59905318784783
H            1.09678735529610        2.87692595169868        0.94964842781675
H            2.76512016706838        2.87820312702986        0.59719211600082
H            3.18088161773062       -1.76417516887913       -0.56455294070759
H            1.90621907756604       -2.97238765492249       -1.64046342236280
H            0.76423462311462       -4.16542158576300       -1.12812799361072
H           -0.58138974952547       -3.86755770440297        0.60053777910913
H           -2.07092429946741       -2.59608438551507        1.96461864495995
