32
 energy: -57.544585004720 gnorm: 0.000977802607 xtb: 6.6.1 (8d0f1dd)
N            3.58334887445291       -2.33168604359419        0.43000332072999
C            2.96537411381441       -1.36074413877086        0.30995255655592
C            2.28567185642431       -0.16754438418347        0.16361384471226
C            2.88446625756281        1.09413110950694        0.37935000242052
N            4.17120699938929        1.32473789176595        0.68952316778003
N            2.01848473768144        2.11930244168663        0.21514958039654
C            0.84172561323031        1.57837440045056       -0.06855179669726
N           -0.12924986266941        2.30506209459341       -0.59150512587223
C           -1.39134583010753        2.41806110088357       -0.41777129326074
N           -2.07088979694484        3.22563851527896       -1.26252450109621
C           -2.14475177747627        1.85148084443375        0.69421406303727
C           -2.19251651876724        0.52734629451351        0.93727743686992
N           -3.04223713784095        0.03555467850180        1.92629018552124
C           -1.55796142327411       -0.51439597957765        0.13489896353482
C           -2.21843985170576       -1.69718249988440       -0.21319398354382
N           -3.54609073310237       -1.96003952356845       -0.12892028371512
N           -1.38741596403901       -2.62647800922627       -0.77439964655245
C           -0.17835613115015       -2.11363041124296       -0.72817042939822
N            0.86903500790032       -2.72741434697709       -1.30118917254563
C           -0.18417239929378       -0.74220649577579       -0.18357628722328
C            0.90348236126292        0.09797027043281       -0.06153224068298
H            4.79121116693471        0.55631136427461        0.87313460750072
H            4.44842030668940        2.26406344223468        0.90897510051056
H           -3.07263511949379        3.26697627483340       -1.22400254435600
H           -1.59326169378838        3.59165670983685       -2.06801904622889
H           -2.73851921510616        2.53598505600883        1.28389061166733
H           -3.34279977187536        0.71999849708505        2.60513098545330
H           -2.74346245728011       -0.83437450878160        2.34259575042272
H           -3.82140399302214       -2.91824578331195       -0.25671706382462
H           -4.10420574218645       -1.36900502096797        0.46416390462557
H            1.80732516815651       -2.49721011256959       -1.01231231188706
H            0.69976424142448       -3.66233161738873       -1.63382275555432
