31
 energy: -54.621454444005 gnorm: 0.000519832094 xtb: 6.6.1 (8d0f1dd)
N            5.46436157314990       -0.00403947964043        0.13472079316307
C            4.32204833365787        0.14315650230334        0.09369499725579
C            2.95779576143580        0.39107816470549        0.04586835009536
C            1.89051637637449       -0.52185357117318        0.00965207043004
C            2.15209548252160       -1.88581872235442       -0.00497193361289
C            1.38617583375018       -3.03997977546903       -0.06363785087524
C            0.03218996758725       -3.32123088273800       -0.08613510116667
C           -1.12744569075677       -2.54957089185560       -0.04491080601496
C           -1.45759467769948       -1.21035886150330       -0.00843860706549
C           -2.82293882587657       -0.83540439576492        0.03091465093180
N           -3.91570159280115       -1.64344757187420        0.04297998945351
C           -2.92897506253546        0.57381177659515       -0.00997633102773
C           -4.12159664194058        1.29290149847714        0.01830833384118
N           -5.11013842129780        1.88187649187772        0.05451751558892
C           -1.63862640788968        1.12778714525443       -0.06173209443258
N           -1.35953812717849        2.43170099091437       -0.12035582214670
C           -0.67068460181174        0.06311597326643       -0.04327377607334
C            0.67299005639815        0.34088279759345       -0.03144622950110
N            1.06394094771244        1.65666128386762       -0.03829036115447
C            2.38489288904826        1.70142860734310        0.01239629784597
N            3.07625544142780        2.84711485878099        0.02767136761588
H            3.22004669046237       -2.08425028704458        0.02213558554893
H            1.99816925979889       -3.93617511515925       -0.08943373198014
H           -0.17753807583702       -4.38438485482743       -0.13080343691646
H           -2.01113919722511       -3.18138127666250       -0.05519588414545
H           -4.80475761446232       -1.20489543588890        0.21761872723710
H           -3.82589992786011       -2.60313619570810        0.32716537249475
H           -0.36183100773180        2.65064430393691       -0.10365734055409
H           -2.09997408246757        3.10997367993543       -0.08079966131172
H            4.07983929034982        2.82609022208543        0.06991302096803
H            2.59374830309773        3.72745221282713        0.00075200400761
