28
 energy: -46.624374365992 gnorm: 0.000331516308 xtb: 6.6.1 (8d0f1dd)
N            4.13287735886853       -0.32542049090694       -0.88546284106235
C            3.04283472288873       -0.33319168539792       -0.51744728904540
C            1.68819025468453       -0.37372218630244       -0.10728316659364
C            1.16144025008189       -1.68846933862141       -0.00335929569391
N            2.03702785166544       -2.69017747650681       -0.30126217771335
C           -0.06353747597451       -2.14015981050772        0.51146143548516
C           -1.35383440325057       -1.64221078295057        0.57576346755389
N           -2.27335073937842       -2.44461589621692        1.17103665693726
C           -1.89995720825924       -0.46752130886120       -0.02302581884726
C           -3.20898348714967       -0.38442274162143       -0.47552005788665
N           -3.52898110874385        0.85706925618070       -0.91542340291386
C           -2.49636687172163        1.62213831014293       -0.67009711322787
C           -1.38609804695819        0.88597429597375       -0.13551464928360
C           -0.18785939945858        1.47820429612702        0.21163517783479
C           -0.04110219856853        2.85241808694686        0.44170280121851
C            1.30022616059699        3.14071975350274        0.62956592073880
C            2.05613164233796        1.97337023273858        0.46141210354040
C            1.20320464751271        0.90158019368820        0.23301241138179
H            1.74550649960515       -3.64893914475722       -0.25453917260257
H            2.97200960367603       -2.48276638004356       -0.60651568666122
H           -0.00120794333346       -3.17286933045554        0.84787917707377
H           -3.22499469437746       -2.13721029463422        1.25215106554897
H           -2.01039039336137       -3.32884648593385        1.56808286957907
H           -3.92725230641317       -1.17894308581247       -0.57796411190910
H           -2.49343388628314        2.65854130614919       -0.94892569255459
H           -0.85104058826836        3.55141551079659        0.51925676911198
H            1.70522463769272        4.10752609863890        0.87144959608731
H            3.12555275499024        1.91182144234435        0.53734124790344
