33
 energy: -58.051700692139 gnorm: 0.000707543087 xtb: 6.6.1 (8d0f1dd)
N            4.03157319666623       -2.47171888485423       -0.96254715236631
C            3.16490250611805       -1.83050534964208       -0.55438779527245
C            2.11384914801415       -1.04353205572340       -0.05398651163105
C            2.58204022659059       -0.01197117447150        0.87449109702010
N            3.54287176375021       -0.46439679575947        1.74260946507967
C            2.26317600140422        1.31136604107429        0.89611405259450
C            1.30979811924080        2.07941645895084        0.18299880253188
C            1.41432964135407        3.45012039975682        0.02939514388168
C            0.19942715269703        3.89743867546562       -0.52216755671419
N           -0.67610757940002        2.92628067212851       -0.66046170227074
C           -0.05476504181037        1.76073607340783       -0.26134001050284
C           -0.78329581252697        0.59958790282549       -0.16247049239354
C           -2.26012979106973        0.64804668043515       -0.11821007025976
N           -2.93866554524386        1.78166511041820       -0.23644540135938
C           -2.72391835807897       -0.63465793570920        0.13130296270332
C           -4.04101737337268       -1.03749300041834        0.32264747892447
N           -5.12400292355148       -1.39292177370547        0.48800375900027
C           -1.58886287217937       -1.51869796512343        0.13478549109163
N           -1.71395233039309       -2.85779362034960        0.27630701236290
C           -0.41208367233127       -0.77842213536146       -0.04427450927381
C            0.83876509850346       -1.40284942166570       -0.41776587420975
N            0.68217023170784       -2.55128125759635       -1.15863177274833
H            3.98880978451626       -1.34639975089591        1.54888616794253
H            4.09517593108734        0.21646856962779        2.23711980178688
H            2.88451280650919        1.91502089805120        1.55159134259525
H            2.26466779232589        4.05961330639749        0.26749706721800
H           -0.05082088533715        4.90362302705273       -0.81212107855342
H           -3.94229693731825        1.79338219003157       -0.17522411050754
H           -2.35045118061530        2.59352088002458       -0.48489789522332
H           -0.89031062961140       -3.41036567573901        0.44559106612879
H           -2.60082964014113       -3.21849492651427        0.58732668099374
H           -0.16014025923853       -2.64014400161164       -1.70272346266058
H            1.51416258194644       -2.95092875239675       -1.56637467820448
