26
 energy: -48.787592294068 gnorm: 0.000937270379 xtb: 6.6.1 (8d0f1dd)
N            0.71197291717792        4.97027157132224       -0.28756273118758
C            0.59662434834071        3.83967042093205       -0.13916375327145
C            0.45104858403459        2.44285183331750        0.04919513416125
C            1.54056708332833        1.81148140051046        0.70629799627014
N            1.96475428670237        0.62064657846017        0.51840083500613
C            1.63724317628703       -0.56531697729605        0.14601173571820
C            2.57252984396540       -1.55477914371152       -0.23645610885665
C            3.91264988619648       -1.32084706782178       -0.55509154501536
N            5.01299382308012       -1.12980950486261       -0.82262710217972
C            1.93276396071551       -2.80438818265430       -0.16023510998939
C            0.60406937311499       -2.64116764322919        0.20399025900737
C            0.31142322953855       -1.27437134217565        0.29535304094898
C           -0.95031874468128       -0.70389076458443        0.23790788269113
C           -2.12106353645076       -1.49229213885172        0.29836022304383
C           -3.22505698439703       -0.69927236290287        0.01343537697390
C           -4.56473549251268       -1.11575438250154        0.02010949882190
N           -5.66047501071837       -1.45544620490386        0.02223299255160
C           -2.77526719915576        0.60368341110997       -0.28723505001568
C           -1.39243648711261        0.66970069151475       -0.12485703748715
C           -0.75804597444823        1.89863967080208       -0.34547602717655
H            2.17999227189548        2.43518273699754        1.32636950170127
H            2.41668304451682       -3.74436290851319       -0.35776627710304
H           -0.09494292365867       -3.44417275968147        0.33323753219722
H           -2.15781228929914       -2.53530004326548        0.54496408988214
H           -3.41175918250684        1.42305513759819       -0.56526465280581
H           -1.42852513105227        2.63170487939074       -0.78628099598675
