31
 energy: -55.407601093946 gnorm: 0.000167718274 xtb: 6.6.1 (8d0f1dd)
N           -1.18820452082358        5.08947376468203        0.23595479121900
C           -0.80684811811424        4.00968009776696        0.15735803727727
C           -0.36172352542991        2.66561928335599        0.06118658060349
C            1.01803721102635        2.55585114019436       -0.12367043920966
C            1.90748664262348        1.50436503931330       -0.19867373491083
C            1.83671868841022        0.11879780543683       -0.07877218787346
C            3.03927265023141       -0.60509216588409       -0.06416453478556
C            4.33328924179173       -0.10284438875131       -0.16872449730661
N            5.42421859711676        0.25581730714984       -0.25393132267749
C            2.75082646010379       -1.99378157104526        0.11156600913399
N            3.67481206980959       -2.95801801005428        0.20315092223258
C            1.36551978268898       -2.13512655908981        0.17035441915000
C            0.74046142959093       -0.88947004333746        0.04296666317329
C           -0.65261930765507       -0.77233055435789       -0.01712512473045
C           -1.46081653741209       -1.91083207423161       -0.08790242829620
C           -2.81259031738826       -1.55101314723599       -0.07765459456412
C           -3.90627650827384       -2.41584129210916       -0.16433451567278
N           -4.82631210991331       -3.10082879169830       -0.24159091356263
C           -2.90491657345856       -0.14749407207443        0.01739858050097
N           -4.08444638499814        0.51660375031813        0.09883786928196
C           -1.58352500286767        0.39182341165839        0.03920647978966
C           -1.42509219829513        1.75387244859592        0.12937773120905
H            1.49808933793335        3.52685950456029       -0.20655117412099
H            2.93396335817185        1.83484085144886       -0.33418506279236
H            3.40499850382231       -3.91610913099236        0.33935178286274
H            4.65202434971814       -2.72527265318024        0.14927137505442
H            0.87637678219161       -3.07838660335974        0.31021262260570
H           -1.12819444633407       -2.92637130977807       -0.17028055796191
H           -4.12817442504532        1.50934865760197       -0.05026539482441
H           -4.92539709384640       -0.00759876882952       -0.07522112460594
H           -2.36966336657487        2.27978867942692        0.25092664520108
