25
 energy: -43.472592188365 gnorm: 0.000532128610 xtb: 6.6.1 (8d0f1dd)
N            3.84831973992636       -0.29018326815111       -0.18006496317579
C            2.76490428954290       -0.67518886371875       -0.09468053930377
C            1.48599756452135       -1.21165426604409       -0.00671021612666
C            1.24527871401326       -2.59134303027021       -0.24596801974380
N           -0.02236558665526       -2.90177623395532       -0.23043534444560
C           -0.72445511827314       -1.75142364949795        0.00306490119681
C           -2.04481737287291       -1.89774282722510        0.30603417513685
C           -3.00018243881511       -0.90517478009061        0.66327817021302
N           -3.14996514881069        0.26398153499130        0.18494292618769
C           -2.46941364629132        1.11558699822743       -0.55606955236657
C           -1.16805807985517        1.50443708146789       -0.36928276101682
C           -0.72110945531734        2.82413469839860       -0.61757533507751
C            0.50986268013582        3.00121541727397       -0.03485588730110
C            0.95069486986481        1.77300198838750        0.51309647618253
N            2.04800762855758        1.66604947156526        1.29783216499030
C           -0.02615037067366        0.77658915633232        0.24656464033736
C            0.22453972710252       -0.59109526338044        0.11644689146309
H            2.00223299941415       -3.33181765705327       -0.43878840041336
H           -2.37641473639523       -2.92648193611020        0.37233961101888
H           -3.76466081170696       -1.20571818027295        1.37691453975472
H           -3.10269619123352        1.74167382813674       -1.17874474927106
H           -1.31049741323617        3.58143685165657       -1.10023827845519
H            1.07513398831673        3.91465822588654       -0.00229948939614
H            2.75090967273147        2.38205176835605        1.21326175567866
H            2.39163599560901        0.75381259269002        1.54733818893373
