26
 energy: -46.421449598312 gnorm: 0.000734292180 xtb: 6.6.1 (8d0f1dd)
N           -4.21820566509654        0.28234825441124        0.54740068160438
C           -2.95163239714675       -0.04787207623084        0.27076037382032
N           -2.52891351735697       -1.32320956102389        0.37574177733456
C           -1.25124187644501       -1.28107008979185       -0.00318121879726
N           -0.58414529044624       -2.32566765178167       -0.34918289037183
C            0.63482324867250       -2.67853018687895       -0.62989966441738
C            1.85033233067288       -2.26432777131041       -0.11245051667048
C            2.27501701115018       -1.02069729461473        0.38114572718635
N            3.47583168754531       -1.03862947496213        1.01272633936456
C            1.71036405021600        0.26513739851370        0.15680010841742
C            2.46764698052670        1.43729244343085        0.22253397843336
N            1.77196404823484        2.56467012547191        0.00350439148236
C            0.51010731915440        2.18878611541381       -0.17236353273585
N           -0.50098815644768        3.03067338595642       -0.41011595538785
C            0.35930540937882        0.74554822849264       -0.13568035415348
C           -0.88295398831993        0.17426524402025       -0.17352897180520
N           -2.03966126145790        0.86908467097650       -0.08898955141329
H           -4.86594073543692       -0.46003408579158        0.74028691859230
H           -4.55048274096306        1.20119060655533        0.31710946400142
H            0.66663234442575       -3.56892228694439       -1.25738192393845
H            2.63608571423232       -3.01122576941182       -0.15735195959549
H            3.99424606485011       -1.89736663683226        1.07149150745748
H            3.93742899729369       -0.18236772543431        1.25828748059415
H            3.53000148375806        1.53293942399912        0.37169644097919
H           -0.34769525957859        4.01538342599585       -0.28042738763798
H           -1.42527281921565        2.60879625327043       -0.35181069714339
