30
 energy: -55.670016505755 gnorm: 0.000968776679 xtb: 6.6.1 (8d0f1dd)
N           -1.69999441377121       -4.22806808257045       -0.82955632047313
C           -1.34706418258954       -3.17244384063030       -0.54179063319305
C           -0.94146951541455       -1.86165133605246       -0.20288507120047
C            0.32265234710725       -1.83093149595367        0.44420763676825
C            1.32884382193037       -0.90399762306833        0.48921100967651
C            2.46183340404396       -1.33151092214282        1.23187107029967
N            3.32272877161128       -1.68013315599286        1.90466834947138
C            1.48528764608312        0.38953189658768       -0.11465582774213
C            2.71701394040890        0.91535518969740       -0.45468616192975
C            3.94763572998933        0.25407843884943       -0.52417933731163
N            4.97446262061556       -0.24428728612983       -0.65498981491504
C            2.55205575179547        2.30479113187648       -0.83256885714756
C            1.25583386522330        2.64746706936417       -0.65977457214873
C            0.51052184452345        1.47921654839147       -0.25796000921303
C           -0.83643164884975        1.49863045849202       -0.01842909733634
C           -1.54316455610491        2.73455756708158        0.31370581834980
N           -2.78390898733009        2.52788335200515        0.59785883082192
C           -3.02682685312952        1.18257240646638        0.37996400721256
N           -4.29869538341920        0.73109424092614        0.53848753852974
C           -1.86880059407917        0.49242479048891        0.02385290824782
C           -1.88022229803111       -0.86325251093124       -0.46227780245336
N           -3.01283311180052       -1.21850689851656       -1.11710254826059
H            0.58505939408840       -2.78642291649541        0.89223869606448
H            3.35445132293113        2.92712117536125       -1.18302062661528
H            0.81446337460705        3.60113491293178       -0.87486198200167
H           -1.09435283232867        3.70072862246171        0.44153252983906
H           -4.43777043623153       -0.24017337334439        0.76821413816639
H           -4.91907749197910        1.38794094700843        0.98578963135022
H           -3.67585478004359       -0.51537549451002       -1.39114495451484
H           -3.09617815935436       -2.14549713125136       -1.50243238274385
