26
 energy: -43.191004428623 gnorm: 0.000442352234 xtb: 6.6.1 (8d0f1dd)
N           -5.02724664493423        1.02033405994247        0.11520198042041
C           -3.91211107889713        0.74637520654533        0.06481102244928
C           -2.55878286332773        0.40228843515257       -0.00669342326153
C           -2.06152054172473       -0.87543767845059       -0.29129470446569
C           -0.66296354641125       -0.85826975684060       -0.18506589221804
C            0.07180655984808       -2.05888633331093       -0.34780505520716
N           -0.50707224932689       -3.02586048547157       -1.09445769595328
C            1.20855063680285       -2.46824929441976        0.38880300186631
C            2.22012973177763       -1.73504555691652        0.95887674334422
N            2.72354148672508       -0.59033227767824        0.56684557727251
C            2.33660430987056        0.52479145711836        0.07526213402457
C            3.26067196782985        1.53002136839545       -0.33903016873187
C            2.57875096983454        2.71025203453749       -0.43095313015291
C            1.19602960335468        2.50056719858333       -0.16841154059413
C            0.97111969113523        1.16744734011193        0.07305499948878
C           -0.28595277645258        0.53000997420914        0.11971501569934
C           -1.47164822673956        1.26137774215350        0.19994972853778
H           -2.68679009729429       -1.73723448203442       -0.44380933205084
H           -1.38460448400770       -2.85769176284373       -1.55316439181433
H           -0.12539116472490       -3.95546381981316       -1.10829627859423
H            1.27312728212845       -3.54132343520772        0.53474728302010
H            2.85376667786637       -2.24197006192736        1.68260581878534
H            4.31318881325620        1.36690342352170       -0.46151650771060
H            3.00644195792891        3.66669254702327       -0.67680899650147
H            0.45392154918828        3.27440085572083       -0.21261529110344
H           -1.54908828420565        2.30858281169917        0.41890451415083
