29
 energy: -55.181308226672 gnorm: 0.000917797292 xtb: 6.6.1 (8d0f1dd)
N            0.51924035760351        4.11146507483210        0.05998186006643
C           -0.21077079932848        3.21878354079328        0.06696854237344
C           -1.13404119516166        2.18010128772433        0.07017665254615
C           -2.46549342463554        2.37021386692914        0.45737670469099
N           -3.18845066951451        1.25220154628050        0.48272789217452
C           -2.37207514243406        0.25684299141811        0.14673854621494
N           -2.83791280410057       -0.89705227737964       -0.21798083720605
C           -2.29593133061915       -2.07849143570970       -0.36872052284291
N           -2.75379369087502       -2.83991211633954       -1.38071519955509
N           -1.49960950724535       -2.68968287930812        0.51738372256116
C           -0.33710444139746       -2.30500163150641        0.93043476888484
C            0.50252818122913       -1.28064546945873        0.46807641845836
C            1.89994347869355       -1.36110137702139        0.61195852505751
N            2.61995404448057       -2.36718594999117        1.14934886031135
C            2.50379444363167       -0.23976742059684       -0.03208867230652
C            3.87738983544565       -0.04454926673164       -0.16569143917856
N            5.01542093750951        0.09429536684346       -0.26162888667704
C            1.49530234142345        0.59809434846873       -0.50731902098611
N            1.69544998574481        1.64947534610858       -1.31695909428269
C            0.20757581619412        0.03418831045849       -0.13542979948266
C           -0.95345510719032        0.76478888300416       -0.04926581587590
H           -2.90914751207475        3.31187959062721        0.73080398681798
H           -2.53476616928236       -3.82051228228951       -1.39158617898071
H           -3.51894757691105       -2.49579584549287       -1.93450755019773
H            0.09246403016882       -2.98562328587997        1.66356127754590
H            2.17000358074527       -3.06576796232762        1.71446432491439
H            3.60957319165104       -2.23018632755415        1.27107789304221
H            2.63092707166002        2.01618755521794       -1.39350512120836
H            0.94405147239310        2.28996715798231       -1.51287888038138
