24
 energy: -43.768384983022 gnorm: 0.000532994381 xtb: 6.6.1 (8d0f1dd)
N            4.66674246412426       -0.18402671079031       -1.02613858309138
C            3.59018760452403       -0.38940076564434       -0.68089550901015
C            2.28221940601587       -0.66878639843662       -0.28745399215585
C            1.73540493519792       -1.94236749621609       -0.04306764435672
N            0.47303352072514       -1.91956447466902        0.34901839640625
C            0.06484598080639       -0.61717743669483        0.32502862078831
C           -1.25532684127903       -0.27330155416769        0.23470815778290
C           -2.29311812073862       -1.29571805503187        0.21645946821676
N           -2.05968205256655       -2.57078384000627        0.53776324221856
C           -3.49417338608541       -0.70638641906184       -0.17372738749388
C           -3.26045943278917        0.63624625142994       -0.44163419524362
C           -1.92714775407576        0.97880261489472       -0.17541944987343
C           -1.45178829436207        2.27082495216400       -0.38784581879014
N           -0.44041995000112        2.89465157391652        0.15079636942152
C            0.64638165437647        2.46822995939744        0.72461071990628
N            1.44045594016923        1.49908835384153        0.36183970819388
C            1.27700979281870        0.25289422300815        0.07558985301527
H            2.25457133900089       -2.88048161145800       -0.14190861166555
H           -2.76644184874747       -3.26674647295915        0.37225195743890
H           -1.07085682869065       -2.81927525324133        0.61817136566724
H           -4.43567252002685       -1.21511580288759       -0.26582004348071
H           -4.00092556650968        1.33537983724469       -0.78704867737376
H           -2.10627168283052        2.92537029961436       -0.95828118397459
H            1.06416647544417        3.13594488805347        1.47696471625196
