29
 energy: -50.377785139752 gnorm: 0.000693934815 xtb: 6.6.1 (8d0f1dd)
N           -4.71266758664144        1.39160262112584        0.39076732134919
C           -3.69305925564278        0.87190478962264        0.25556030593284
C           -2.49828108110552        0.18687606060403        0.08718101473095
C           -1.18530811716773        0.68478630970503        0.07976435919461
C           -0.93462742610401        2.03618748475106        0.28185919410678
C            0.18630196425994        2.84615774795183        0.19812500873851
C            1.52581707343100        2.67191280814411       -0.08963149053570
C            2.39328783832470        1.57743874221813       -0.24434156302932
N            3.65961159166314        1.93527894792016       -0.57946894732655
C            2.19672300236493        0.18735384229646       -0.04848752095007
C            3.26470787987423       -0.69109656752731        0.12325415265832
N            2.91426245880120       -1.98777574943650        0.16644327191668
C            1.60375926469993       -2.02632744976035       -0.03040843527434
N            0.91688152633850       -3.16790805843427       -0.11675560297147
C            1.02019297278678       -0.68961283788180       -0.11215557947694
C           -0.33953818983405       -0.51766965229940       -0.13199624896169
N           -1.14552907241527       -1.61694149576003       -0.26288079030800
C           -2.40328325957950       -1.22201575013364       -0.13895701415714
N           -3.44108965711160       -2.06782186641064       -0.20373480771714
H           -1.84640775429552        2.58642907099892        0.49606759857981
H           -0.06156615129857        3.89280101934277        0.34831264547593
H            2.05274511579207        3.61652273747203       -0.19493289600179
H            4.36379170945136        1.23985798768730       -0.74044309280212
H            3.90596793705346        2.90486823553695       -0.66670643073902
H            4.30244758724928       -0.45109950549271        0.28142955968791
H            1.38076366166796       -4.02584630514514        0.12384881094106
H           -0.09453724339759       -3.05272912308953       -0.16895310994408
H           -3.28272497521501       -3.03512013666068       -0.42100486757411
H           -4.37907464044837       -1.71228197334580       -0.15225480134419
