30
 energy: -50.082964471928 gnorm: 0.000667824469 xtb: 6.6.1 (8d0f1dd)
N            4.86253762347789        0.19026355816708        0.82761522374115
C            3.79364700220769        0.54473352122078        0.58564769621359
C            2.49267250677892        0.94457597375114        0.30487121634622
C            2.05012013506683        2.22555148718915       -0.00945580419356
N            0.74789048039412        2.27065576930211       -0.25935317545144
C            0.23762491090561        1.01484957306338       -0.11459155060798
C           -1.12884596687809        0.83950186548644       -0.09710935779625
C           -2.00483368682902        1.99064336992432       -0.05424600033493
N           -1.61635084935968        3.26237255783083       -0.26777046960062
C           -3.29145273341355        1.55675599891756        0.24511288835257
C           -3.29161953892956        0.16848408232071        0.28718069480277
C           -2.00713509102799       -0.34298321322040        0.05078315952093
C           -1.80634326329125       -1.71386286870224       -0.18934518336596
N           -2.95244995871602       -2.44050559406044       -0.37485738748431
C           -0.65405180948054       -2.52294657967837       -0.24048644386911
C            0.68617214011901       -2.39364598578774        0.07335589647494
N            1.38944556697760       -3.56943875584376        0.12909537076850
C            1.49570263546924       -1.26427606698581        0.35211060384090
C            1.35213584165345        0.08464182720178        0.19836803745702
H            2.64637784839851        3.12031041741376       -0.06503363454260
H           -2.21508938386339        4.00649555416867        0.04786146903196
H           -0.59998952831194        3.37552338120547       -0.31288634519652
H           -4.14298725656215        2.19218911364045        0.40603585180165
H           -4.16787165729158       -0.40789110968600        0.52666441111554
H           -3.80807543332576       -1.96808236444642       -0.59907275093056
H           -2.88620035230979       -3.41279589746837       -0.61749124408100
H           -0.90586512251985       -3.55296853354629       -0.48562210083984
H            0.96554084924268       -4.41958211820674       -0.19832501161027
H            2.39371269787806       -3.54064023540890        0.15433551874776
H            2.50628904393930       -1.54381084055996        0.64166330198892
