29
 energy: -49.567247992516 gnorm: 0.000748680741 xtb: 6.6.1 (8d0f1dd)
N           -0.00397154259796        3.56937432459922        0.94333742035668
C           -0.00882182321579        2.39515885417802        0.25353376479602
C           -1.16770447011373        2.09745968205209       -0.50008393400202
C           -1.77662601128063        0.87786472469419       -0.73123203100625
N           -2.92805357308711        0.91656562299871       -1.47159923330453
C           -1.49833231918484       -0.38660107508892       -0.12454175408419
C           -2.48912743341308       -1.34835316828138        0.12460508215812
N           -3.86209549212304       -1.25931714453658       -0.07326988637257
N           -1.98535703385914       -2.49665755328513        0.63694926253862
C           -0.67578278625239       -2.34648759410624        0.66705725925753
C           -0.26175379556494       -1.05678167475098        0.25042989313695
C            1.07987887471267       -0.71255468416271        0.11572775730043
C            2.17152746719791       -1.55640593401147        0.02995547472136
C            3.27547204660211       -0.74537932431430       -0.31303888139591
N            4.51903023132318       -1.16540753760351       -0.58622043887964
N            2.97189732993338        0.56750526101725       -0.38507607057212
C            1.67735159793115        0.66168573879894       -0.07880151130170
N            1.15424115532759        1.80879304965733        0.20123167165016
H           -0.86303661558414        4.04952408112563        1.13783189961726
H            0.81878729307890        3.80129195720381        1.47155148274856
H           -1.71440421574511        2.96577396898144       -0.85107528773762
H           -3.10029258892891        1.72932467514291       -2.03841323782693
H           -3.31070269584866        0.04154343328361       -1.78841767186738
H           -4.32929627753327       -2.02971221937298        0.38724022984148
H           -4.26290614435033       -0.36433771338243        0.17426506616402
H           -0.04216689789598       -3.12897086306536        1.04110319556802
H            2.18804971506151       -2.62436897097712        0.11718135778605
H            5.21692994610901       -0.47792257240836       -0.80797572501491
H            4.78157142110131       -2.12325801448574       -0.44365107417569
