25
 energy: -47.485985021585 gnorm: 0.000785844059 xtb: 6.6.1 (8d0f1dd)
N            4.50619503441645        0.09809757108266        0.62940038265450
C            3.37447994501570        0.13094375687440        0.42557899672704
C            1.99364275617644        0.18522278770681        0.16534622150425
C            1.29809339807323       -0.99944377198863        0.26191856683228
C           -0.01201371729812       -1.38710848861547       -0.03073257168097
C           -0.38125803871447       -2.75374951851716       -0.07105658768265
N            0.39096158643732       -3.84505708469215        0.03841515017120
N           -1.72050683931075       -2.93119248133278       -0.29873680705758
C           -2.24834931632512       -1.74259100396799       -0.36842490269993
C           -1.27789343905539       -0.68742086302689       -0.23700880342477
C           -1.67159227635394        0.62099579812505       -0.17004327141924
N           -2.96103484710297        1.00624631988483       -0.04225416801129
C           -2.89775671783732        2.23202002914441        0.43945030088140
N           -1.67693699258588        2.76391053815301        0.63433014080817
C           -0.83997847469441        1.84276345600457        0.17218039761257
N            0.41212479547080        2.04781757826113       -0.05258835939148
C            1.51676660057746        1.45852639781317       -0.35602587455230
N            2.37130777205233        2.13188875084465       -1.15239067750388
H            1.93320660097898       -1.82841898831024        0.56662810722781
H            1.36300687726510       -3.78915996631034        0.28233390114642
H           -0.06837493085794       -4.73855717788206        0.03079970543722
H           -3.29909307164841       -1.58790027715676       -0.52234821739194
H           -3.78505257533975        2.79309675812667        0.67305137108736
H            2.12397890123715        3.06066259349580       -1.45055143609100
H            3.32183759632341        1.81869046178382       -1.25638918688316
