27
 energy: -47.710384010130 gnorm: 0.000825878802 xtb: 6.6.1 (8d0f1dd)
N           -4.58037689701219       -1.85149635943549       -0.44623185365032
C           -3.54951690287427       -1.37031370398920       -0.30207587172233
C           -2.27277941372355       -0.76805617039875       -0.13343381578010
C           -2.31937104551462        0.62047154455123       -0.16085487873313
C           -1.38833403259530        1.63082969194197        0.01780096962581
C           -1.81669384217428        2.96485237331384        0.12351440667872
N           -0.80738574164481        3.82071982884675        0.30758199567458
C            0.30831219716810        3.11272068644404        0.27398399583614
C            0.08122366047473        1.71945570206219        0.10312230166015
C            1.11914770654745        0.80815599276701       -0.01565298672874
C            2.45339790708450        1.20923957499414       -0.14211537749333
C            3.27891259883067        0.08818247278482       -0.18442925788228
N            4.60953837862659        0.06845961302822       -0.31969819201014
C            2.45684251322851       -1.07288127801948       -0.06132084674450
C            1.13862792841023       -0.69735317751582        0.02351677804608
C            0.12397849944177       -1.68014555883305        0.16630701217937
C            0.64490356217235       -2.98650863017115        0.39375128792484
N            1.02195821433883       -4.05100207754865        0.59503191379493
C           -1.25518500508258       -1.71248219026545        0.08062039616056
H           -3.32667267325643        1.00706246883601       -0.29955353843120
H           -2.83311656446429        3.31339865882730        0.09944240537072
H            1.25306190291735        3.60248874353920        0.41247785042032
H            2.79729153450155        2.22106156886887       -0.22110668634683
H            5.10678129590533       -0.80470507784355       -0.34075066506455
H            5.12704665360288        0.92579460106715       -0.40540155743880
H            2.83103599577213       -2.07950672385898       -0.05443849604661
H           -1.65356448588071       -2.72162010489319        0.17378900150064
