31
 energy: -54.594692067071 gnorm: 0.000881911710 xtb: 6.6.1 (8d0f1dd)
N           -5.47486626228342        0.05619461161907        1.04731011200151
C           -4.38542232878846       -0.04576812443195        0.69080110616947
C           -3.06033190196528       -0.14133606996084        0.26934778753617
C           -2.37221706786040       -1.33661542796911       -0.07436507295722
C           -1.04892427558529       -1.05165866260745       -0.34358905926568
C           -0.13616330431455       -2.05607122688462       -0.80444204343203
N           -0.72400382842108       -3.05832990860802       -1.50544824997378
C            1.20226267007911       -2.23361302354628       -0.49794600905344
C            2.15402370852017       -1.49847936562731        0.22752907858585
N            3.14563704553455       -2.23995129146618        0.78380459382549
C            2.31221510064295       -0.09361491897667        0.33286620467923
C            3.47266817371876        0.33710502970008        1.01846103105317
N            4.40164733569236        0.63534045373622        1.62677756110662
C            1.64001795458684        0.96780192604571       -0.29271416277765
N            2.30510458392645        2.10019724402217       -0.48570284153965
C            1.43768466998328        3.01276880862153       -0.95992941777886
C            0.13767162729705        2.55020073088483       -0.96500333759245
C            0.19015247009049        1.19325273562259       -0.58231594658324
C           -0.88860665679598        0.39661861159938       -0.25449816342105
C           -2.17467132120690        0.92578266961310        0.13015577463840
N           -2.46823508716377        2.23479363152213        0.36077042402822
H           -2.82762405949607       -2.31045213021475       -0.04390928225959
H           -1.68600758907659       -2.98148958171583       -1.77867835882832
H           -0.19134133799315       -3.84935318388506       -1.82083295450193
H            1.56990032842059       -3.21837551972175       -0.77548268227478
H            3.15516062444832       -3.23850563220600        0.68094206226860
H            3.93980397401047       -1.78779420722584        1.20549288908824
H            1.79840973729806        3.97234107549412       -1.28484816308127
H           -0.72039276271346        3.06538061268374       -1.35053745499288
H           -3.31905052102294        2.41902591319866        0.86939675390189
H           -1.69442061086034        2.85604199378529        0.53978468593069
