25
 energy: -44.269062190883 gnorm: 0.000884529318 xtb: 6.6.1 (8d0f1dd)
N            4.46270985320824        0.81045027082430       -0.32826920444953
C            3.40956522394711        0.37855552810842       -0.20097871699262
C            2.14406540636803       -0.27013570884426       -0.06267940786130
C            2.27984751469479       -1.66674520378058        0.02870308730806
C            1.40294971930987       -2.71218922480437        0.17823744974428
C            0.00710430855727       -2.83445228931499        0.19074628975530
C           -1.07325363813245       -1.99647499459239        0.04847135347029
C           -2.36532260925205       -2.56439124488701       -0.01918485304907
C           -3.30212535808772       -1.56929474497327       -0.21551797431996
C           -2.64973348068879       -0.33208348309227       -0.23939978776510
C           -1.27758244481256       -0.51240787153466       -0.06895540713932
C           -0.38966655448626        0.55995231179065        0.02734489494580
C           -0.77945599783699        1.91700936835787        0.08453688962120
C           -2.03909225054828        2.51384869393958        0.17043166484077
N           -3.03330254493924        3.08511973869760        0.25264287053979
C            0.40575044813384        2.68354085792565        0.10038430814928
N            1.48629807551420        1.93506490097087        0.03222077751314
C            1.09703324694108        0.64044629436882        0.00674588778679
H            3.32183678369239       -1.97193382849136       -0.00247918745641
H            1.90167969131471       -3.67012442865705        0.27831064235806
H           -0.30469165759545       -3.87009370861472        0.29745672329287
H           -2.56704139956598       -3.61764837096419        0.04434847276566
H           -4.36136767878632       -1.71013104963755       -0.33041770924729
H           -3.14200200966350        0.61059677923655       -0.37536628669206
H            0.47329730021277        3.75465604557091        0.16428790408017
