27
 energy: -48.507407297005 gnorm: 0.000676837302 xtb: 6.6.1 (8d0f1dd)
N           -5.96448264894552       -0.97062089420770       -0.53773989211493
C           -4.87763164416382       -0.64780233399700       -0.36341789442756
C           -3.55077488399651       -0.24936067940056       -0.14181886727171
C           -3.14911158465134        1.04177822289988        0.29825473298575
C           -1.77048224430080        1.10430312290615        0.34129305014733
C           -1.14174583329364        2.29266133890553        0.74925756343032
C            0.11879931790127        2.81255865449113        0.60169809325914
C            1.30511073417629        2.32442532646788        0.04036307273903
C            1.81051125560969        1.05809506481150       -0.18341136376571
C            3.10245880932904        1.10382506842080       -0.78311062385617
N            4.09264394704519        1.21552761602256       -1.34935589946563
C            1.34623870765272       -0.25169264543437        0.10258548532966
C            2.22361543820851       -1.32332798954483        0.23799940305806
C            3.61400825994733       -1.28821156287552        0.40074767079133
N            4.74352017445279       -1.33256844773003        0.60359831254918
C            1.47185865158301       -2.54022630555131        0.31781023705350
C            0.15097239717783       -2.24691576167535        0.17401653024513
C           -0.02199649294369       -0.82877429454995        0.08808121489669
C           -1.27069486437588       -0.25725283877647       -0.01191133205862
C           -2.42550196766669       -1.03301574344133       -0.30406894058685
H           -3.82433549338680        1.84619323949806        0.52368796124852
H           -1.85531142560705        2.99464472035514        1.16960371275997
H            0.20133269190954        3.85031901008751        0.90572551620695
H            2.01379985083742        3.11030645806004       -0.20447173000698
H            1.90912838825587       -3.50974477012530        0.47059726274528
H           -0.64889657827357       -2.95943559164734        0.21370079752568
H           -2.42788016248112       -2.05115798486922       -0.64064028991755
