30
 energy: -50.103469935893 gnorm: 0.000679977623 xtb: 6.6.1 (8d0f1dd)
N            4.35745479984937       -1.59804260500618       -0.41038192902034
C            3.46676929984351       -0.87288238216594       -0.30089749590003
C            2.41428943844690        0.01952582295325       -0.16090243688131
C            2.53595712380679        1.42227402776168       -0.12976582593386
N            3.68211433298931        2.11075346717026       -0.28583539163335
C            1.25481205055821        1.97346886516862        0.06595484943741
C            0.30084605173749        0.96923577103203        0.12266561616015
C           -1.06802814292852        1.22687645135786        0.31747131019765
C           -1.55249287628666        2.48271578514806        0.74662508278927
C           -2.92868210325362        2.50459175034061        0.64481862996974
C           -3.35023242774776        1.29387301614125        0.08637564939141
C           -2.23858586617603        0.47007391100231       -0.09103920939349
C           -2.31880457320317       -0.83050969361333       -0.65672383907604
N           -3.24312776254847       -1.03516249235119       -1.62253727107568
N           -1.71985234026676       -1.90854560885581       -0.22199852644635
C           -0.60984678898419       -2.21992792454045        0.38386741463261
N           -0.64775944357554       -3.36981292608207        1.10300603536913
C            0.67092435893177       -1.61947815142818        0.22810370633084
C            1.04145772872079       -0.32177154219139        0.00588246570045
H            3.69206400487800        3.11015219357346       -0.19509271765790
H            4.55062992825395        1.61756840035505       -0.39406092551252
H            1.05827703954053        3.02732004976155        0.11248905482215
H           -0.94449673872616        3.27696932687207        1.13659139052554
H           -3.57289260652524        3.31654933664968        0.93169170361655
H           -4.37344818383963        1.01503165213844       -0.09863998179948
H           -3.43674333825068       -1.97027562021907       -1.93478805191415
H           -3.83733574785259       -0.27812613589647       -1.90609125785486
H           -1.50586200571306       -3.88840649223204        1.15084014470321
H            0.19617688350853       -3.77561925877974        1.46247921375670
H            1.49636705691423       -2.31878516306474        0.32219732459714
