29
 energy: -55.180758876599 gnorm: 0.000779287835 xtb: 6.6.1 (8d0f1dd)
N           -3.12701328954079        2.75954635951668        0.08907157390698
C           -2.17207768905778        2.11835529354154        0.12281980339770
C           -0.94236136802691        1.43325508261089        0.13183965513545
C            0.19352230166313        2.29928995592329       -0.03126578246760
N           -0.01374511012538        3.44943708557073       -0.71006188239150
N            1.36420484097854        2.19211402080401        0.53746107476330
C            2.26498564155779        1.29732049413378        0.78141118849560
C            2.42664055880565        0.03925850634489        0.21806579987738
C            3.65642395217693       -0.65700225960998        0.13147348961967
N            4.89151021580894       -0.20070920371752        0.42861766542584
N            3.50752074126895       -1.88719168487818       -0.42100848959462
C            2.22199001060120       -2.04540499292851       -0.64934433505563
C            1.44194389617973       -0.90523505273458       -0.29845793521233
C            0.06231832242516       -0.98078117455601       -0.21416421850170
N           -0.51983109794591       -2.17650959748272       -0.41729260490403
C           -1.81818543917515       -2.04887563349776       -0.14787804883884
N           -2.66556695760825       -3.07628775631924       -0.21097400859620
C           -2.16707757574470       -0.70537790370349        0.21165068868805
C           -3.46475381407501       -0.34553749381702        0.55878085716145
N           -4.56414668828941       -0.18544255691177        0.86038947308699
C           -0.98380926666916        0.03735555470472        0.13588725148561
H            0.71451840804670        4.14301491764335       -0.71863992120578
H           -0.94627721490735        3.71402245886508       -0.98148704299973
H            3.05073233193979        1.65698350780172        1.44476415428828
H            5.63646776430939       -0.87514033827329        0.38436764811531
H            5.00131420650467        0.58773441018977        1.04215441266447
H            1.83206740622817       -2.96005480946790       -1.05182862526311
H           -2.31822589091711       -3.98337280017680       -0.46833823353330
H           -3.63229305631268       -2.94945933837392        0.03497186305095
