26
 energy: -47.217631357372 gnorm: 0.000557030915 xtb: 6.6.1 (8d0f1dd)
N           -4.28561294089310       -0.64814131898398        0.95035937231348
C           -3.19517708993348       -0.39533782569843        0.68645175597304
C           -1.89117923786210        0.01842220126449        0.36128117443655
C           -1.79228416931480        1.37958994636430       -0.16654214731619
N           -2.81186226202210        1.74825246793337       -0.97029230461128
N           -0.91080440687069        2.27394167341890        0.10901683859255
C            0.33229769279421        2.35022006483668        0.52342528781510
C            1.40509745068294        1.52853214969955        0.26926894039786
C            2.74252030355975        1.98226039738153        0.36965544727633
C            3.61602040432344        0.98497439230800       -0.00007092137422
C            2.87542459040947       -0.17479624309215       -0.29474470484227
N            3.33936896020906       -1.37192060567325       -0.66178626783639
C            1.47449229050338        0.11574522019381       -0.12411570404996
C            0.54507545652698       -0.90093264214029       -0.05791503389592
N            0.91842203060523       -2.19738223636992       -0.19589065977847
C           -0.14598209194995       -2.91369366316275        0.16612988328773
N           -1.23061252385846       -2.24304254965203        0.50309425410678
C           -0.90462405045196       -0.94028938844756        0.33151723978747
H           -2.84482383817482        2.69464749157280       -1.30880722194919
H           -3.62688144895400        1.16433466188393       -1.05388956967405
H            0.55385282304865        3.30543322557087        0.99414954895634
H            3.01549009201063        2.98106972592370        0.65916833227267
H            4.68747686443509        1.05700477851854       -0.03807438546422
H            2.63176594239064       -2.11499139301707       -0.63747726164345
H            4.32416160854307       -1.56801721522693       -0.60870421224303
H           -0.11883420305664       -3.98898008960562        0.17582548466262
