28
 energy: -46.627710844498 gnorm: 0.000844650874 xtb: 6.6.1 (8d0f1dd)
N            4.36635070333869       -0.29583371392965        0.27787679513601
C            3.22348807833854       -0.26636301167168        0.13798308968029
C            1.82097081128940       -0.23034385023865       -0.01427532692993
C            1.29488580289996       -1.40490314156701       -0.60323669305659
N            2.19566768374317       -2.17822075166469       -1.26961340086335
C            0.02120785879166       -2.00135928424353       -0.46872431089480
C           -1.21413311448458       -1.62825523671378       -0.00824723814012
C           -2.22577717433542       -2.58752041044980        0.21744014506621
C           -3.39347945705536       -1.93953493900367        0.55818129436584
C           -3.18882977399961       -0.54895075663102        0.50889340670688
C           -1.87011441589264       -0.29084396077616        0.18331587582975
C           -1.35482191850643        0.98196758784433       -0.06934825155569
C           -2.16524589464971        2.10436911006541       -0.36296499158062
N           -1.46108171904192        3.21755915326764       -0.49265436370319
C           -0.19342099506306        2.90923081701382       -0.19672962365792
C           -0.01549275848544        1.53614859860683        0.03245910130452
C            1.23964098896715        0.99905818054780        0.39376881656557
N            2.04144120761402        1.83648903663606        1.08865485219596
H            1.94795844653129       -3.11089287622799       -1.54971096290892
H            3.16542070176201       -1.91343340513603       -1.31019326250465
H            0.05164028556394       -3.05307032147181       -0.74841761652641
H           -2.07958654673216       -3.65061413330641        0.16521158077710
H           -4.32164192283584       -2.41592919471142        0.82162682729470
H           -3.93406001938141        0.19272785614182        0.72146903396135
H           -3.22193906819061        2.09794337311912       -0.55102910691635
H            0.56836429014809        3.66699599373979       -0.26330245545183
H            3.01345008253599        1.62191910042898        1.24039214535720
H            1.70551038992817        2.75757001333101        1.30963309454878
