27
 energy: -46.137148121384 gnorm: 0.000625331635 xtb: 6.6.1 (8d0f1dd)
N            4.01100193925843       -1.30800992778298       -0.49142420140120
C            2.88156951156067       -0.62668036757080       -0.24079176506604
N            2.80034802259166        0.69316841723697       -0.50641833545976
C            1.57699994456561        1.04295207654333       -0.10891674064981
N            1.24328496275204        2.26874337471729        0.08809034800748
C            0.19369436385145        3.00104653962875        0.30868273036698
C           -1.12356817158993        2.85532592575741       -0.10322807829009
C           -1.87113685751616        1.70242901069783       -0.32944253930788
C           -1.67927464108125        0.34991505737099       -0.11361890110437
C           -2.77403787920953       -0.55858111511088       -0.22312063901522
N           -4.05770121038814       -0.25215124273314       -0.56880366778188
C           -2.34550750712655       -1.86626375069858        0.02210885630947
C           -0.98287553690048       -1.85079467573116        0.28177970048650
N           -0.19479392206974       -2.89290671079073        0.60096226202267
C           -0.50284713715423       -0.49066322426870        0.20882994557116
C            0.83973276298166       -0.23488771643674        0.23858254282497
N            1.78332342341080       -1.21646047174026        0.23646016176158
H            4.12353787618885       -2.22250963903547       -0.09234667294733
H            4.82335997018137       -0.76981624589354       -0.73578014127301
H            0.44537103848012        3.94640032994043        0.78943002581247
H           -1.69171789973274        3.77727962383786       -0.13564109693423
H           -2.88917038258325        1.93775475447710       -0.62762362183331
H           -4.74980968988152       -0.96033039114084       -0.39117290067006
H           -4.37243600114941        0.69765936253799       -0.46618410579375
H           -2.97585161533818       -2.73737343873299        0.02068474227241
H           -0.51944040407936       -3.82295881891764        0.39599662085834
H            0.80253915047775       -2.67092381376120        0.55246554973416
