29
 energy: -51.161347996974 gnorm: 0.000920444665 xtb: 6.6.1 (8d0f1dd)
N            4.82144845109858        0.44741708313900       -0.61430582817634
C            3.84314861503383       -0.12526242978997       -0.41993050763595
C            2.69204484238507       -0.88090941410937       -0.19640122321908
C            2.64021670478636       -2.28805508046395       -0.26969785721333
N            1.43264389806914       -2.76612504324973       -0.03891570846285
C            0.59733992020775       -1.71145576098316        0.12202192914895
C           -0.68690320891409       -2.00135807973793        0.51520183614399
C           -1.91247420414992       -1.31519858402478        0.53051087990879
N           -2.93771596157394       -2.00681106532771        1.09004387963016
C           -2.26374762936740       -0.09519137869459       -0.10502958976435
C           -3.63129849303009       -0.03165578736209       -0.45219944384976
N           -4.74327514983831        0.01482271631172       -0.74614213168340
C           -1.54737639696860        1.09068123119827       -0.39118207441622
N           -2.19710342090920        2.01339674659675       -1.13360179201626
C           -0.30514914785302        1.52894439407920        0.14269842129341
C           -0.08713038744487        2.87149414434424        0.44104689317083
C            1.24282005185771        3.04784863271237        0.86156793137672
C            1.90111387848626        1.84715170981757        0.74401574471108
C            0.98337795992497        0.85427595485585        0.32218423724195
C            1.36813467690380       -0.44650081189493        0.02504182279698
H            3.46349407946728       -2.94498330865169       -0.48919697727154
H           -0.78046255713777       -3.04828480602852        0.78971576666534
H           -3.88285468740898       -1.66712742381350        1.02516396181562
H           -2.79475015083307       -2.95716164059637        1.38487263108608
H           -1.75257015463573        2.89385978827815       -1.32325630346717
H           -3.14551023805096        1.86709089842978       -1.43809140238249
H           -0.83418184109407        3.64594479628012        0.44840859583019
H            1.66365981855949        3.97265504718530        1.21023127702737
H            2.93164462682973        1.66373464619983        0.97756611091365
