35
 energy: -61.496063925513 gnorm: 0.000836406731 xtb: 6.6.1 (8d0f1dd)
N            4.56954050700317        2.26168935926004       -0.92024146906423
C            3.60604081935046        1.67603447380532       -0.68175509563737
C            2.46020478248466        0.95704363246640       -0.36601090233760
C            2.44954764631532       -0.38835703063750        0.14977349271807
N            3.57865275563035       -1.11101017728894        0.36417740126038
C            1.13329345837177       -0.80931345772269        0.29628631297203
C            0.80974393880954       -2.04378885778920        1.01455403037050
N            1.60999027070793       -2.26148502246556        2.13586388242446
C           -0.02924908013659       -3.00827160764654        0.59546810075982
C           -0.79125140318287       -2.91113520561320       -0.64340100028292
N           -0.69088235471931       -3.96237553921155       -1.49770521138378
N           -1.63370506776910       -1.99349341104477       -0.92963898705817
C           -1.98638060138888       -0.85352482044494       -0.32293238289392
C           -3.29492568856151       -0.45520240846611       -0.16078849576887
C           -3.31445851368648        0.91549110872235        0.18147940176830
N           -4.41522869812826        1.65166218367198        0.43384144018781
C           -1.99149396135629        1.40828154828190        0.18176852209336
C           -1.69957627241617        2.70593823807587        0.56455666411278
N           -1.52989683994295        3.80428596194210        0.88501128192518
C           -1.11016806096601        0.31355883668555       -0.07340748381078
C            0.27234293756765        0.28222523443195       -0.06968322307509
C            1.14757553258139        1.39480826982389       -0.44963095824976
N            0.75532981130515        2.55598290633287       -1.01490640135798
H            4.45694812773868       -0.62087166899228        0.38002336606599
H            3.49651123191031       -1.96179315295222        0.89598889854463
H            1.87553963726048       -1.42416507478622        2.63343211029492
H            1.29338878419923       -3.00219206233123        2.74459584007641
H           -0.11450169607426       -3.93346487056717        1.14888345590147
H           -1.12708275128462       -3.87495485096588       -2.40013104093631
H            0.07896720524806       -4.59998866274848       -1.40200538839523
H           -4.16132371196562       -1.07539525303637       -0.28805993681469
H           -4.31349821217127        2.60431550114991        0.73988667207255
H           -5.30597302517841        1.20087925398594        0.54078637580141
H           -0.15952637848455        2.92469152002823       -0.80961415630874
H            1.47785958982896        3.22864119934626       -1.21655909617534
