32
 energy: -59.132022987721 gnorm: 0.000732406361 xtb: 6.6.1 (8d0f1dd)
N           -4.55635135450165       -2.13263505979645       -1.04599868046937
C           -3.51574650056331       -1.83906396716214       -0.66337567476144
C           -2.19607231949496       -1.55314279483886       -0.22131339676523
C           -1.45459491868007       -2.71057343549994        0.07556906304699
C           -0.22839796902457       -2.95652046204814        0.62537072308641
C            0.96214745998756       -2.21444824872873        0.83570099483442
N            1.90673913884717       -2.89478886936796        1.53130953448924
C            1.37112385390307       -0.98149028401390        0.28848626321668
C            2.73310363360797       -0.68763262803579        0.05847554534523
N            3.82500226520410       -1.53122091214659        0.16899733631361
C            2.84327739971620        0.66030050131534       -0.35815196063215
C            4.04357767747320        1.25743823110869       -0.74895061921116
N            5.05974736432917        1.68663173814830       -1.07332765612472
C            1.57219033265073        1.23220239143833       -0.33866273952201
C            0.62824813150214        0.26116153508082        0.01673943003467
C           -0.72404397082456        0.60620413036368        0.14327475528317
C           -1.19141032062890        1.92406611543485        0.23354137322931
C           -0.53501805047518        3.12629894540845        0.47562405799755
N           -0.09763261288036        4.16941878200209        0.69073519384857
C           -2.61901027522784        1.86044522626503        0.11422237987879
N           -3.45926863953813        2.89176798216566        0.17914854440403
N           -3.03917758751406        0.60886498242686       -0.07406954096053
C           -1.96440205633479       -0.19295801163952       -0.02924133107055
H           -2.04526425447843       -3.61002138137054       -0.07547207923484
H           -0.10032041774537       -3.99325071932058        0.92452103187174
H            1.67303996371152       -3.77015527504605        1.96748941459127
H            2.74368292876721       -2.41964618973058        1.82643393140150
H            3.66782905107181       -2.49130093079603       -0.10465419186162
H            4.66193684618173       -1.14174433154198       -0.24569704168237
H            1.35685584647427        2.24663448805047       -0.61203200390933
H           -3.11286307533798        3.82422479281178        0.32659244337385
H           -4.44498729617222        2.72118490636493        0.07921277116101
