31
 energy: -54.611873116138 gnorm: 0.000381268093 xtb: 6.6.1 (8d0f1dd)
N            5.22087409597818       -2.11465833124161        0.28544048981294
C            4.16213987852859       -1.68244336253773        0.17030112565686
C            2.86683500763687       -1.17610950441147        0.02368418537462
C            2.49350207199945        0.15498208412648       -0.01774477306859
C            1.08179394974350        0.22700741885144       -0.09151114049479
C            0.43550711758678        1.45742994278926       -0.13564697382930
N            1.12490983396750        2.55252017582981       -0.45398064753767
C            0.31532672804739        3.60893604093845       -0.24295812603341
N            0.72918042635529        4.84986109760438       -0.52682022172139
C           -0.92962473415780        3.22174857298598        0.29709070384931
C           -0.92889419777885        1.83759987543210        0.34559847669990
C           -1.93940327544859        1.09655591583864        0.96048762323416
C           -2.36270032612770       -0.21764616890230        0.88391391045575
N           -3.41797622707472       -0.55178451947329        1.68526740765777
C           -1.95456771056231       -1.26166387583286       -0.01845815663024
C           -3.02407148289833       -2.10201115770148       -0.38919689713865
N           -3.90126041559484       -2.77881426834262       -0.70490938813856
C           -0.70728777051388       -1.64730767420793       -0.51222414807987
N           -0.67650973230071       -2.71406789779263       -1.34591610887082
C            0.59033066712950       -1.13828090512185       -0.17148275738403
C            1.69631302631194       -1.96933483366582       -0.11940910916994
H            3.13557456069157        1.01035714607579        0.05334350410169
H            1.64408123504237        4.97159253040672       -0.92344950841452
H            0.13283332931539        5.64316080504094       -0.37924491988965
H           -1.72827823724391        3.88037753925476        0.57791715844042
H           -2.59218220136551        1.71552513739803        1.57119004228822
H           -3.92103361537304        0.17480230651513        2.16473298354752
H           -3.89405428448204       -1.42689496563723        1.54354054231126
H           -1.51641253766309       -3.22118725938408       -1.56984952765675
H            0.20515004668480       -3.03883669218940       -1.69979926648277
H            1.69511257316576       -3.04536547864494       -0.11639759999075
