33
 energy: -53.232401638728 gnorm: 0.000847160615 xtb: 6.6.1 (8d0f1dd)
N           -4.60454205082900        0.99524787447594        0.73847343985204
C           -3.53174702734724        0.72421722022773        0.41007504898480
C           -2.21910910811287        0.40425266103485        0.02255702132031
C           -1.64063047270510        1.38133302949716       -0.85571509725008
N           -2.55310542839943        2.05458822081872       -1.63099447493373
C           -0.33414960250889        1.82238990966090       -0.94411018881729
C            0.86212780164307        1.46059904029092       -0.31767095477914
C            1.91568802733541        2.34863626500207       -0.20344447412292
C            3.01809292609721        1.69201789461432        0.38899163344151
N            4.20572275913166        2.27319256832360        0.69341295431665
C            2.70030616384854        0.34037406616077        0.54427642189240
C            1.38051991476501        0.13117269108158        0.13260112255853
C            0.80155378157368       -1.11783574465128       -0.03744046346836
C            1.57444652508825       -2.31520627850220       -0.24326711308474
N            2.94222210845107       -2.36968947622708       -0.44111722615466
C            0.71780637968751       -3.39708804757791       -0.28120090838333
C           -0.58134820523019       -2.94056315928306       -0.02543417289751
C           -0.58587160789471       -1.55103618159441        0.07613816209306
C           -1.75676831716173       -0.84341126910075        0.46674947930666
N           -2.59267370610875       -1.54334220195427        1.27879272619869
H           -2.27938273168080        2.93236396022206       -2.03970614489967
H           -3.53334741215367        1.93851234332576       -1.43204667785020
H           -0.23497431706272        2.73143807197907       -1.53310105336601
H            1.88823575668096        3.39024901041413       -0.46738995568702
H            4.25339817304094        3.27752310667083        0.72059970810699
H            4.84451621082067        1.77034016808189        1.28557446113878
H            3.32771235313699       -0.39075389897927        1.01687909795695
H            3.34276226091236       -1.51243584757260       -0.79781333198017
H            3.24379738587271       -3.19403938698677       -0.94124499721268
H            0.99789178768372       -4.41669224445061       -0.47545488971277
H           -1.45049590333147       -3.57587664833801       -0.00667248308197
H           -3.52177879300502       -1.21111525916524        1.47396812439438
H           -2.32295163473935       -2.46243444279854        1.57925459372074
