24
 energy: -44.535216104885 gnorm: 0.000572631698 xtb: 6.6.1 (8d0f1dd)
N           -4.49192584203614       -0.79085515707796       -0.04596505202870
C           -3.42857217560902       -0.36661478307279       -0.02903095693529
C           -2.14861439365165        0.27040733930707       -0.01051974180024
C           -2.27716955309297        1.68383081768573        0.00505554346698
C           -1.40453114608894        2.73168764206317        0.02144048588967
C            0.00408401796314        2.84546596733364        0.01945487299314
C            1.05312992436779        1.97572703166611        0.00300728707780
C            2.39297356907337        2.49125902091680       -0.01181664360097
N            3.29846179341930        1.54940819130194       -0.03415850797434
C            2.64807224630877        0.36376448681743       -0.02838750562496
C            1.26403124534380        0.50057796899004       -0.00712138398531
C            0.37705208445754       -0.58410308661954        0.00357908244199
C            0.75365272718649       -1.93234281887597        0.01218540117247
C            2.01153258199168       -2.54067371063748        0.02906867082230
N            3.00292757682484       -3.12126236021994        0.04495180808835
C           -0.44893025400426       -2.69664219521495        0.00658252763958
N           -1.51799543421879       -1.94514854416347       -0.00647886744839
C           -1.11412590890674       -0.64314378440782       -0.00484051821226
H           -3.32153996712953        1.98285453788578        0.00519849878079
H           -1.89431951460903        3.69898955575704        0.03509929857033
H            0.32918776052319        3.88244483474756        0.02899273728514
H            2.66537618071973        3.53093546967030       -0.01069084035883
H            3.21684921305936       -0.54548124690607       -0.04295062187017
H           -0.51772796738546       -3.76961920274150        0.01146749161583
