31
 energy: -60.214655412882 gnorm: 0.000597017003 xtb: 6.6.1 (8d0f1dd)
N            5.04879825941623       -2.80089970344521       -0.39152844461719
C            4.09388439153068       -2.17195445624432       -0.29098891502507
C            2.94544267020666       -1.38158325690302       -0.15583761580773
C            2.94541516700413       -0.01717075685443        0.22604795692831
C            1.64911307195517        0.47564669534250        0.17359849581816
C            1.39813180180007        1.83679189005275        0.55761161340331
N            2.20695142277345        2.33416327853148        1.50966673636638
C            0.56907838297900        2.75430248485452       -0.12347447970345
C            0.89126174701385        4.11970479600940        0.01249365620254
N            1.17212989844842        5.22648460732845        0.13800885093350
C           -0.50499963242985        2.46284757380574       -0.98759227740172
N           -1.37541611328656        1.53212470360583       -0.84207087704272
C           -1.56736920069198        0.37769010216300       -0.29224400455884
C           -2.83802838641366       -0.12580972150690        0.04872959929272
C           -4.02746319801200        0.59344889726421        0.16592146611065
N           -5.02890602587477        1.14458960749405        0.28488906429924
C           -2.72740155319785       -1.52879254505525        0.20032481437393
N           -3.71917157832203       -2.36555484276245        0.49688994053893
C           -1.36428926394166       -1.90919697609245       -0.00973454654187
C           -0.96325755987522       -3.24111750333845        0.09372766257736
N           -0.73089059801565       -4.36332402949254        0.19477132098913
C           -0.59848343105768       -0.75432139563040       -0.21143261655783
C            0.79017359408730       -0.65052781081434       -0.20815543619763
C            1.63385164111127       -1.77312259873759       -0.36647003017273
H            3.83941240741487        0.54385269736360        0.43256623589790
H            2.91915611749115        1.75533424727327        1.92102027754157
H            2.21262026695563        3.32351638463400        1.70361043590550
H           -0.74628141884600        3.19138016448422       -1.75706944110379
H           -3.54767020130564       -3.35690038565253        0.54584522242896
H           -4.64828115043138       -2.01362208319780        0.66025228940030
H            1.31029192561715       -2.75459252617369       -0.65353040158454
