31
 energy: -54.607525497973 gnorm: 0.000651793659 xtb: 6.6.1 (8d0f1dd)
N           -2.95783568954495        3.66049362017544       -0.51605734473046
C           -2.11827370188486        2.91697444442100       -0.27262258166279
C           -1.01850110107517        2.06142846715417       -0.00019094304259
C            0.16098193188737        2.76198701571565        0.29676991141145
C            1.42058286347134        2.41083293978468        0.69774542413325
C            2.20121563880417        1.22873302668128        0.68390608400758
N            3.41943579620845        1.38399571527116        1.26917468305210
C            1.99216253110064        0.00290264553909        0.02377614046968
C            3.06527949073441       -0.82347931556735       -0.38139762402450
N            4.42264291686389       -0.51883464375070       -0.37170022537753
C            2.55673842661368       -2.04452425727473       -0.85192390207263
C            1.18771787272759       -2.03421419371677       -0.71135300328635
C            0.76649118361361       -0.78367311942691       -0.21025789553131
C           -0.58299192385019       -0.54418659571532        0.03768837571368
C           -1.56923272556564       -1.55099002994213        0.07836623925353
C           -1.47914186888608       -2.93556573149228        0.15472061336951
N           -1.52295294483942       -4.08416732565548        0.23842777588504
C           -2.82843135129581       -0.88483328477735        0.12480680492489
N           -4.02940921136928       -1.46223744787537        0.20463101000810
N           -2.68566869804856        0.44491934605211        0.08003009923246
C           -1.37441811302619        0.71297981284119        0.06587694177586
H           -0.00360742083025        3.83639700760017        0.29624718094667
H            1.99801978147899        3.25794189043156        1.05867171093957
H            3.60984845331162        2.21553021480024        1.80119769854880
H            3.99244008327385        0.57258840736483        1.43043709014979
H            4.96386531376013       -1.17209963159812       -0.92194236424379
H            4.64559877800318        0.44039604151172       -0.60137590757919
H            3.14980796903653       -2.84340383844784       -1.25859344118974
H            0.53099850760022       -2.83244876977394       -0.99638228359540
H           -4.11156910033758       -2.46299635869839        0.24629993769025
H           -4.84626987452981       -0.87795157032756        0.23628334632190
