28
 energy: -45.829929177239 gnorm: 0.000787796354 xtb: 6.6.1 (8d0f1dd)
N            1.96757524380157       -3.01323017125250        1.15792971961273
C            1.54778470835295       -2.04661203349389        0.30047792488780
C            0.50819299801685       -2.45098621390507       -0.63477601958652
C           -0.66792315435520       -1.82202460969971       -0.83362430062445
C           -1.22938737352619       -0.63286320053197       -0.27855312070397
C           -2.61308175916967       -0.45085302113041       -0.22640656731896
N           -3.57628729277132       -1.34634968727143       -0.58978947385580
C           -2.92043051857796        0.85409894708420        0.26318067993194
C           -1.74956324986635        1.52657464612684        0.45191359256894
N           -1.59973896960893        2.80012487142099        0.92614627879901
C           -0.63209205363373        0.64120817978028        0.09851254568223
C            0.65287363397386        1.09074871392327       -0.03358223181938
C            1.10170965734920        2.42282717218528       -0.28917467488490
C            2.41696738314609        2.31917973594253       -0.64192265113375
N            2.92506863571796        1.05617159917936       -0.49918211457930
C            1.92444859764554        0.29464655735297       -0.12903196002119
N            2.13024772110207       -0.90978329954225        0.38144692114348
H            1.71150700473366       -3.97090218909384        0.99981564036710
H            2.76584344765423       -2.81350994342511        1.73594005067623
H            0.66386834636320       -3.41358443271018       -1.10484863737715
H           -1.36500670789716       -2.35416555093773       -1.47639270685032
H           -4.52080301663005       -1.14459908181950       -0.31038440739237
H           -3.33164291959624       -2.31882609620793       -0.65436340348980
H           -3.91216844588372        1.21989396863302        0.45765824301694
H           -2.40452884110612        3.19890641125371        1.38278707711327
H           -0.70994694963306        3.02205260160735        1.34330545580750
H            0.49325758875628        3.30109570414525       -0.37809762731207
H            3.06232607144223        3.10310855288638       -0.99906270515742
