30
 energy: -54.890655242841 gnorm: 0.000741813442 xtb: 6.6.1 (8d0f1dd)
N            4.88930087958196        0.50430204659554        0.25307850586339
C            3.92392029169935       -0.12116989545572        0.22769113435659
C            2.77670279621804       -0.91072624758374        0.19310489118245
C            2.71221494902630       -2.24790984717741        0.57613460856441
N            1.48827655403604       -2.78869796761940        0.44545178154312
C            0.69199639862412       -1.82484884506085        0.00749237866010
N           -0.46888257012022       -2.08723005684350       -0.53416883769556
C           -1.62579849968229       -1.54380573830360       -0.65033441994247
N           -2.46120252559452       -2.02955217449889       -1.59134434773428
C           -2.16062650035580       -0.52629695218637        0.24677705223337
C           -3.42270242570033       -0.81425368976210        0.78027861674300
N           -4.46907423612575       -1.04956073915207        1.20082639431088
C           -1.57910420183971        0.70242626402536        0.51400004472430
N           -2.27459014515952        1.56219157333427        1.31527916733224
C           -0.41196316041495        1.27429012198120       -0.11382469310951
C           -0.33313894676724        2.63142717882885       -0.42044852397507
N           -1.31656752753807        3.57640555704350       -0.36247941318235
C            1.01019581991152        2.94775662421531       -0.83112541111110
C            1.76921467114841        1.83591036309240       -0.71417620026997
C            0.92774713003297        0.73089770065236       -0.30932556052572
C            1.43019658327513       -0.52503541244381       -0.09325385338206
H            3.52659550417935       -2.84533929897376        0.94666962676843
H           -3.44099265438281       -1.80515366724579       -1.55285660518331
H           -2.17189343433428       -2.84295256412610       -2.10895734174330
H           -1.78552664088031        2.34866097717817        1.70688692328234
H           -3.05369112849226        1.19486859746392        1.83896448131245
H           -2.27291874082837        3.25964741493808       -0.33597271316834
H           -1.14943189503426        4.42464514963768       -0.87944236735032
H            1.32371161098337        3.91943960275200       -1.16539261855553
H            2.81244888963431        1.73633993409377       -0.94098249464739
