26
 energy: -47.215960865413 gnorm: 0.000916409241 xtb: 6.6.1 (8d0f1dd)
N           -4.29552684307096        1.35041484840565       -0.51479916936237
C           -3.17043908633527        1.30231141331092       -0.28504420615696
C           -1.78932524128254        1.24780552534929        0.00145815255605
C           -1.11577239212117        2.45048030800257       -0.12313221792564
N            0.01181160981572        2.85144772772529        0.40867793161463
C            1.19147417663190        2.41956826565578        0.64946149371283
C            1.84369926904284        1.27206911914301        0.15398435121610
C            3.22378925304499        1.13065059266435        0.05658690263108
N            3.62231156911961       -0.10569439618816       -0.29715446111642
C            2.52116594928906       -0.84025624768061       -0.37362039625582
N            2.50626828949262       -2.13419890236698       -0.67306822261850
C            1.30467216529336       -0.05090919872746       -0.12145798507978
C            0.07704593706210       -0.63760450234419        0.03482306319679
N           -0.01536974002796       -2.00674874612948        0.02119881232559
C           -1.27813571393382       -2.32133886579399        0.25857005644447
N           -1.69775015217662       -3.58894252486460        0.36419735160715
C           -2.10687189436499       -1.15984733213818        0.38420600814679
C           -1.28859176508229       -0.07078485947517        0.23681053600527
H           -1.66798146390602        3.26371786329534       -0.59118392932907
H            1.79277008259468        3.08396217101894        1.26804777703604
H            3.95682468561519        1.90258072502380        0.21020794153759
H            1.60199806033916       -2.58909144278606       -0.53584402677868
H            3.37978970584552       -2.62367212567918       -0.76381320899324
H           -2.66721012464154       -3.79086483268737        0.52553363695411
H           -1.04414322622845       -4.34267956784041        0.24966254481935
H           -3.16752816491514       -1.16437977049319        0.54172199731281
