32
 energy: -54.316338619537 gnorm: 0.000919725614 xtb: 6.6.1 (8d0f1dd)
N           -2.46379947373741        3.86391119216155        0.46889920868008
C           -1.48353476065036        3.26717995082704        0.37739114270430
C           -0.27200443224991        2.58327437017935        0.28059986201293
C            0.96614965628351        3.14296343907456        0.50938462906985
C            1.94792080907045        2.13178129486468        0.41054319226368
C            1.34340651733404        0.90931841705215        0.21292055653523
C            2.10780202973190       -0.26293940155527       -0.11779072650074
C            3.33482503080810        0.04188250167091       -0.74189898380779
N            4.33138518451964        0.25729129486052       -1.27639331138774
C            1.90587300519364       -1.60044293987017        0.18774342700813
N            2.91828636485774       -2.47603497242405       -0.06798755705094
C            0.81269928950262       -2.17766247857232        0.91621191082272
C           -0.52450498980231       -1.99189828249010        0.81243582363508
N           -1.35572041039923       -2.82658610305580        1.55640249095466
C           -1.25165177667737       -1.12323259192256       -0.09436266269801
C           -2.45045155621982       -1.48639614951442       -0.68708901961871
N           -2.97617020844786       -2.73034315230514       -0.80652637385832
C           -3.05727526439437       -0.31045534524363       -1.27979600018855
C           -2.30065466882893        0.75940611661936       -0.97273253386487
C           -1.10851625470189        0.30199773423611       -0.26438228391523
C           -0.10083518418330        1.15402125822655        0.10120433121294
H            1.15464704485938        4.17751206326418        0.73308722382760
H            3.00682591698132        2.29653519171957        0.49121030889806
H            2.76737907148042       -3.46267346473795        0.04067021615095
H            3.73474842471601       -2.16328780797440       -0.56547866769811
H            1.12766232835287       -2.97562606894145        1.58272292438573
H           -2.24028613231045       -2.41899175242976        1.82101725776247
H           -0.90207123036044       -3.31672002824801        2.31354307254226
H           -2.56859216532996       -3.47719325498690       -0.26952078074262
H           -3.92058077091740       -2.83129790880297       -1.13301461944471
H           -3.96404316919100       -0.32765200170685       -1.85563163839394
H           -2.46363833988934        1.77465667352484       -1.27559570439573
