28
 energy: -45.832190918954 gnorm: 0.000733659314 xtb: 6.6.1 (8d0f1dd)
N            3.48854989908559       -0.07580922907114       -1.34697378384046
C            2.40890464243492        0.00903377671160       -0.51522537949320
C            2.19454758564453       -1.12227284610979        0.34682160524164
C            1.01011356365996       -1.71025628685168        0.66934266550478
N            1.03822101479052       -2.84298432989213        1.44365184896992
C           -0.29923932166135       -1.40910461395484        0.12495304670476
C           -1.24441147259844       -2.38693462007286       -0.10664505815918
N           -2.45155132502856       -1.89426710300272       -0.50739304441850
C           -2.35257401930490       -0.58944893222402       -0.44188817022713
N           -3.37288435169698        0.23137574302942       -0.79611658620927
C           -1.00066932276632       -0.15556277714354       -0.05392149657513
C           -0.62616354579412        1.14807298473140        0.13757993762619
C           -1.45781436587008        2.23665769814613        0.48978538383463
C           -0.65502616495295        3.31807491232516        0.78105834695212
C            0.69835765477080        3.01178128487671        0.52410828992379
C            0.77882530990119        1.70011596938015        0.11174991633477
N            1.84306982127713        1.16470774620955       -0.46189023125109
H            3.86449215135348       -0.97811571609445       -1.57564977136267
H            3.63208002462123        0.67897872903664       -1.99598121081347
H            3.09974334523965       -1.59431664189515        0.70993529801239
H            1.87712644448419       -3.04349139715534        1.96084817427661
H            0.17128366316114       -3.16149616596155        1.83925606751895
H           -1.11058630204290       -3.45282091879376       -0.05475458933658
H           -4.12070111368317       -0.21681507876398       -1.30149684765351
H           -3.14149133594136        1.17492289832142       -1.05913549820353
H           -2.51672388651882        2.18579714127786        0.65846059690008
H           -1.00483477480514        4.26681484681803        1.15187267521017
H            1.52610148744093        3.68614399302261        0.62890569513289
