33
 energy: -63.653891298978 gnorm: 0.000767417817 xtb: 6.6.1 (8d0f1dd)
N           -3.45666808146366       -3.96382069226527       -1.00517417910182
C           -2.78009238005220       -3.08176848530211       -0.71431761543889
C           -1.94138041381067       -1.99102380585257       -0.37668339700925
C           -0.61099169933707       -2.23131468516137       -0.72700953221668
C            0.60530941689993       -1.64916673723937       -0.43682650538481
C            1.77121022878092       -2.42537970741267       -0.57152499897231
C            2.85658666498045       -1.73447811553755       -0.04457713000526
C            4.16699388971340       -2.20133347725392        0.09477276690725
N            5.25162029280831       -2.55789910600951        0.22339282975999
C            2.42261004465532       -0.43993126195883        0.34983211907523
N            3.20836655174387        0.41265941917711        1.03626623500730
C            1.03416009868736       -0.32407575269888        0.05634788158214
C            0.34894257681090        0.88144288688149       -0.05154273134834
C            0.92211226366124        2.15626872166235       -0.21535924833522
C            2.22008136443240        2.55335740349533       -0.50731197707181
N            3.26508476689323        2.97244715610811       -0.75410987619370
C           -0.15854624520584        3.09383142790997       -0.23227804247902
N           -0.06167784066648        4.40653788784188       -0.42826400965039
N           -1.33012891985969        2.49175086762131       -0.02129095126634
C           -1.11224437703965        1.17255575112254        0.06555048090567
C           -2.23030732014754        0.42005626642724        0.42562456917331
C           -3.26970324384851        1.27022518810772        0.89159180465576
N           -4.13481197668164        1.89990484349618        1.30894024041312
C           -2.60345693102595       -0.94835719460887        0.32059085260911
N           -3.80163367388133       -1.26890415969289        0.85301041038612
H           -0.49585750981532       -3.19324475135812       -1.22175133158876
H            1.80283800950299       -3.42949063812922       -0.95219295977737
H            2.92000420912582        1.35968098120480        1.20668738628468
H            4.19722257817224        0.22485934643096        1.06204128661281
H           -0.90476077388750        4.95430128779994       -0.45179464880937
H            0.82858964865633        4.83326284277576       -0.62052239399861
H           -4.38695315839342       -0.55323694558281        1.25400991520890
H           -4.18602164840276       -2.18949995570490        0.71174261456695
