29
 energy: -50.382788673390 gnorm: 0.000986037790 xtb: 6.6.1 (8d0f1dd)
N           -4.07564916748815        1.85688842877478        0.45396544887928
C           -3.36420006044030        0.96503325055424        0.29032877347940
C           -2.57240904423809       -0.16112228231349        0.08293237105690
C           -3.10038979835895       -1.37638963259985       -0.37257534926564
C           -2.09139464851004       -2.32341183518198       -0.50802405838013
C           -0.88290104221121       -1.74399310091181       -0.13317343539237
N            0.18225570854875       -2.44549726674587        0.17759801812044
C            1.44285077663876       -2.14462276344924        0.33252911604823
N            2.14676153331184       -2.90850517335621        1.20585684155977
N            2.15979333873415       -1.33480128276779       -0.44720555941474
C            1.98620553110183       -0.08236881753518       -0.73129338157408
N            2.83496323612180        0.42737501148089       -1.66815305695629
C            1.14969494162082        0.86343807558719       -0.03984102402255
C            1.52289341562013        2.17993554439429        0.20077665189141
N            2.72918096146834        2.77788774585434       -0.06226992418364
C            0.41100840484731        2.87996396553384        0.77708260470089
C           -0.65114383781265        2.04034707684928        0.82360324069150
C           -0.25577124907122        0.73755639529163        0.34173156088236
C           -1.15298223492545       -0.28990023410273        0.16131692928919
H           -4.14395652787602       -1.53836452621989       -0.58114351094719
H           -2.21729827160608       -3.34842410551356       -0.79664004868667
H            3.14887674687944       -2.91145059576562        1.13485365991603
H            1.68864997536127       -3.71575424234448        1.59191078648327
H            3.33997306571958       -0.24315073504592       -2.22453553253899
H            2.59741466998699        1.30527727204234       -2.09734526831925
H            2.91067540495965        3.62623324461730        0.44977469406151
H            3.52385555621893        2.16558442432979       -0.16373143819163
H            0.44286634783742        3.90366217987729        1.10224148637507
H           -1.62701485173566        2.26715153590215        1.20348381866729
