27
 energy: -52.499874278284 gnorm: 0.000747340727 xtb: 6.6.1 (8d0f1dd)
N            2.61841892554668        3.89989813022917       -0.54450232045488
C            2.07948534966353        2.89976296123887       -0.38106643278534
C            1.42209589069476        1.65596033752661       -0.18880607629405
C            0.11389130520788        1.83303097808381        0.27022069104805
C           -1.04081706917422        1.06102225030881        0.31400166944309
C           -2.14979174640833        1.80167052891112        0.81332468986542
N           -2.98782586329032        2.42658639709232        1.28232186281434
C           -1.34112667824700       -0.26297545481712       -0.06364480904781
C           -2.63311694209452       -0.75559102841467       -0.25783549261745
C           -3.84711755224539       -0.07150483715487       -0.38027344817954
N           -4.87117886838140        0.42339785820797       -0.53539773564038
C           -2.49952235982490       -2.16569440618231       -0.42982790184166
N           -1.26305761053298       -2.57416923022763       -0.30386207678624
C           -0.48243903722192       -1.47647527472447       -0.11224320817333
C            0.86075493987807       -1.65641452857045        0.09659601195268
C            1.39208445990206       -2.95407223250598        0.43682483403450
N            2.67902453663043       -2.91931647121564        0.62854865268930
C            3.09566972890502       -1.66317580917703        0.32382378031130
C            2.04620650526514       -0.80838629916461        0.01713840287959
C            2.24884165809192        0.52850002492456       -0.42941108702808
N            3.43003837846194        0.76546410773498       -1.02480162927357
H           -0.07478207387279        2.86430075620249        0.56385318275758
H           -3.29713655656169       -2.85436224808880       -0.64429546534215
H            0.80261421349024       -3.83585570927472        0.59371157517545
H            4.14141862707184       -1.42756957398850        0.41250933448616
H            3.70374066031309        1.70315200688640       -1.27497944016024
H            4.08094605473260        0.01262986475994       -1.16760589943251
