31
 energy: -58.636676567945 gnorm: 0.000459944044 xtb: 6.6.1 (8d0f1dd)
N           -4.35238681934153       -2.23258659168305       -0.10910037941664
C           -3.36743232354092       -1.63704643226940       -0.07182242082935
C           -2.13108204010815       -0.95409934810164       -0.02614915132559
C           -1.07677483865175       -1.87835285889223       -0.00730980329557
C            0.29302431873606       -1.84839441063480        0.02094476892186
C            1.07044619200722       -3.05620804609066        0.04577825786788
N            0.62141437901784       -4.31846486118990        0.07355805599052
N            2.39460292803162       -2.83591308401518        0.04968632390284
C            2.56171412314240       -1.51324421404568        0.02633618531875
N            3.74544414896871       -0.92026965280212        0.01912573196972
C            1.30081718389547       -0.79125355422787        0.01139903022328
C            1.25938020685668        0.57073310552307       -0.01059050910015
N            2.40951785633952        1.30704925923991       -0.03070029855005
C            2.01155017501262        2.57426472594103       -0.03336024537956
N            2.84678275847876        3.61436265201791       -0.05525310563557
N            0.67019998130971        2.76714150928834       -0.01205669872802
C            0.13157853609317        1.55330107959805       -0.00040828183887
C           -1.26970326481670        1.49242328830068        0.02913522198178
C           -1.80238694370269        2.80542476948160        0.07479135482685
N           -2.28624094396570        3.84831157965801        0.11994765227427
C           -2.24854386189539        0.46481298413785        0.00588008596854
N           -3.52493327294250        0.91296118524423        0.01426089881835
H           -1.47159853806725       -2.89280819620267       -0.01813719417308
H           -0.35646754183682       -4.54006081219876        0.04640678691284
H            1.30129073277648       -5.05706390792124        0.07212461642479
H            4.58477249953906       -1.47168455258545        0.03310625591097
H            3.70577925551134        0.10311123996446       -0.00226395123899
H            3.83930358989782        3.47083845969847       -0.07488753041743
H            2.45530064621721        4.53861195202608       -0.05678993099664
H           -3.71342907258967        1.90208613995030        0.03438091459503
H           -4.29332395457240        0.26250335359003       -0.00224752918303
