26
 energy: -47.214106763911 gnorm: 0.000605994035 xtb: 6.6.1 (8d0f1dd)
N           -4.42167920472632        1.36253351835109       -1.10004157028339
C           -3.31944328358285        1.35666755468328       -0.77314036427955
C           -1.98246092852181        1.35782501251515       -0.38226606897206
C           -1.17759837219716        2.49625505538296       -0.11902476778137
N            0.04021590801045        2.20181635865365        0.26742777698970
C            0.15679465605512        0.83065929934299        0.21413654379654
C            1.36652979089709        0.21811899791130        0.13335485390517
C            2.63195050217295        0.98451635317908        0.25590462814076
N            2.66096687150631        2.27448914784034        0.55895037486068
N            3.68865330979578        0.22474005669338        0.05071249718722
C            3.20970587496738       -1.00354899000853       -0.25515035307917
C            1.82552643969275       -1.11858073357974       -0.21294383377580
C            1.19132854105962       -2.34298026884385       -0.54173867843800
C           -0.06800100260160       -2.81901404996655       -0.39510992881524
C           -1.20997916005212       -2.18579993835638        0.21917082620033
N           -2.02863253541010       -3.00637572691229        0.91588313678833
N           -1.62230798400849       -0.96676778415236        0.10061348088452
C           -1.18737284206762        0.24476200319492       -0.06824039928319
H           -1.49684978012195        3.52146827588754       -0.19713110183250
H            1.75143059692461        2.74047171295519        0.58591668366867
H            3.54220336347700        2.75689134028667        0.59421093414621
H            3.90429088625450       -1.78829206863007       -0.49962876237777
H            1.90245979313923       -3.06462486289254       -0.93277544187497
H           -0.23067467203435       -3.85870155907358       -0.64999515659337
H           -2.87461060332578       -2.63268899092951        1.31068082390465
H           -1.85616723180799       -3.99389884873358        0.96006888721481
