31
 energy: -53.818923921784 gnorm: 0.000496122001 xtb: 6.6.1 (8d0f1dd)
N           -3.40438577471884        2.64384530124990       -0.12677958866809
C           -2.82007775374988        1.65230416428408       -0.04833242210652
C           -2.27430970744583        0.37532516244941        0.00611503562850
C           -3.12491025963631       -0.77373983661896       -0.11785054108580
N           -4.46417386989225       -0.70184377024906       -0.22439600171683
C           -2.33273819294256       -1.91145003174345       -0.08583212312282
C           -0.98328063183007       -1.54384727491070        0.02975018968120
C           -0.00905634742761       -2.49478804935133        0.24921659989697
C            1.40028792314234       -2.42417831900294        0.33245293662583
N            2.01088911617282       -3.44048607292187        1.00024730912412
N            2.23148659027696       -1.62303894592992       -0.28723116870621
C            2.27684858599275       -0.36402759146254       -0.62859220178513
N            3.27469054380742       -0.04671500952181       -1.49319804666160
C            1.55031983590583        0.71230541983432       -0.05853186570302
C            2.06174267203158        1.99939524677200        0.14787763716470
N            3.35035209752170        2.45100491763776       -0.06166032499570
N            1.11994243125886        2.85316801076444        0.61626241417250
C           -0.01346995148079        2.18159581930784        0.64593694814553
C            0.13570951200948        0.81972698522401        0.25944849977014
C           -0.93987401982878       -0.04857766808123        0.08310263234655
H           -4.90165762536255        0.20042629988322       -0.30372108036975
H           -5.00691649505841       -1.52797394733226       -0.39940462089062
H           -2.69110127417790       -2.92258603606621       -0.14341433499136
H           -0.40099558245611       -3.49139131018992        0.42741643875402
H            1.48033446343464       -4.21841985983793        1.34637579399172
H            3.01294557413891       -3.50182056094873        0.97430709249507
H            3.75355694668609       -0.79542193020477       -1.96325326183028
H            3.29803295235933        0.87771609576546       -1.88699867306235
H            3.50367044914589        3.34517960857002        0.38347362924957
H            4.07923060806846        1.77800083262819        0.12865257839952
H           -0.91268231554433        2.65235152010106        0.99377292445183
