26
 energy: -48.011535394851 gnorm: 0.000739089217 xtb: 6.6.1 (8d0f1dd)
N            4.66552862982170        1.63525330022290        0.01576801201498
C            3.59937820070332        1.21377400975088        0.01010743565611
C            2.27992190351264        0.67859392936977        0.00706452767660
C            2.28244290076530       -0.72366211532479        0.01544893432690
C            1.33397613004089       -1.72283095077510        0.01617466027921
C            1.74935768860614       -3.07234919910278        0.02652132029867
C            0.64093805817138       -3.90428584279621        0.02529421917493
C           -0.50691998204644       -3.11631873243666        0.01419536963072
C           -0.14625156107395       -1.76189950542709        0.00814686696739
C           -1.12512952101303       -0.77587565601704       -0.00316050885841
N           -2.41437736621332       -1.12940469246545       -0.00820509556549
C           -3.10437693467287        0.02020145145645       -0.01879848211085
N           -4.43083098102893        0.07084719122978       -0.02642718981243
N           -2.34982453416322        1.14365927617965       -0.02124799057496
C           -1.09194628563469        0.72173469647442       -0.01185885774556
C           -0.08313371123937        1.70016462061312       -0.01208344849414
C           -0.62258698155255        3.01902459018277       -0.02159745380822
N           -1.00660451977215        4.09865381891752       -0.03288675323609
C            1.30443604582793        1.67636376174620       -0.00427400566430
H            3.29541105264637       -1.12191808008191        0.02337977405102
H            2.77606024280110       -3.39005827822000        0.03413157912561
H            0.66202224725705       -4.97882439803000        0.03179866639411
H           -1.52365328134090       -3.45775819997079        0.01055989625680
H           -4.88269523784164        0.96831156412771       -0.03422400113509
H           -4.96043236749543       -0.78251978497371       -0.02429267505149
H            1.73405510473468        2.67641534495053       -0.00790767199532
