26
 energy: -48.006085917409 gnorm: 0.000906857331 xtb: 6.6.1 (8d0f1dd)
N           -5.69467682140694       -0.96912908525033        0.44075476345031
C           -4.61627655248937       -0.61394014023370        0.26657763187936
C           -3.29944191640624       -0.18604200869654        0.06030910537459
C           -2.91032853321347        1.03997815692404       -0.49089569572216
C           -1.51313665237955        1.10267649600156       -0.47981871413307
C           -0.79030028617407        2.21431079363061       -0.91877217932157
N            0.29961512671015        2.67353510209207       -0.40539058346254
C            1.37848547841342        2.33560916371926        0.19745373759616
C            2.11934024904913        1.14073111966421        0.05696623594741
C            3.51162145701682        1.26265971165724        0.28400743437892
N            4.63054971527333        1.40908012938919        0.48743705233695
C            1.65568715064678       -0.15093813271614       -0.18175947800637
N            2.56449387737032       -1.12038328664760       -0.30067764662698
C            1.90968881263283       -2.29113292777625       -0.23729537315608
N            2.56316242489619       -3.44749396055285       -0.34552395503407
C            0.51393703762246       -2.10596225864428       -0.05990236415737
C            0.27546536184149       -0.74781523485649       -0.06350830836096
C           -1.01435178349585       -0.17692017759804        0.03381208413067
C           -2.14424309814298       -0.93586109931199        0.34290398657846
H           -3.57002754222138        1.82478388409481       -0.81015773044052
H           -1.26651479155857        2.88460027179807       -1.62983752555235
H            1.84414798085994        3.13417989798283        0.77095260942914
H            2.08279240262655       -4.32645621609473       -0.27287689466168
H            3.55930087122990       -3.42482204756921       -0.48221591306384
H           -0.20581640803373       -2.89694390005517       -0.00164300547330
H           -2.15003798356607       -1.93118150865085        0.74420146407009
