27
 energy: -46.936202074448 gnorm: 0.000925067575 xtb: 6.6.1 (8d0f1dd)
N           -5.33205018801398       -1.52993355586045       -0.10129908726683
C           -4.26822686820744       -1.10421154415067       -0.00504711878027
C           -2.97532335304136       -0.58751125152455        0.11628116014972
C           -2.63597033299514        0.65854247226377        0.67758215994615
C           -1.26161177422998        0.85712258175364        0.56519308801649
C           -0.70377511093013        2.06529745594215        1.04274504398007
C            0.42364479427304        2.75898226389194        0.73515409888869
C            1.46222093190141        2.38281057424894       -0.17897828121606
N            1.97883453410278        3.36197149335341       -0.95561283514533
N            2.07389663604062        1.24352959738902       -0.23318737166777
C            1.89135833604156       -0.01368709557554        0.00111651025128
N            2.93650749988892       -0.82762321108294        0.15108378073767
C            2.45430797671296       -2.07896981031170        0.03014804477805
N            3.27001375491564       -3.13273252944859        0.12725624827165
C            1.05376592485190       -2.11517240081422       -0.18562939968654
C            0.61349440075618       -0.80968479178306       -0.12315575501640
C           -0.71116673474413       -0.36183019996572       -0.03679710775079
C           -1.79623835877490       -1.21632842873494       -0.28616599657173
H           -3.33812457412196        1.36088277161704        1.08953473864814
H           -1.39432104699887        2.60378186670148        1.68531296064985
H            0.51532493311126        3.76178450703274        1.13300292549512
H            2.72561494999103        3.13690626130368       -1.58934863018335
H            1.57085147203092        4.27826518031730       -0.97009445862394
H            2.92719132394744       -4.06713467341450       -0.00006819756604
H            4.24302076532315       -2.97301724712025        0.31919942182792
H            0.47015819320625       -3.00788069422583       -0.28556136728373
H           -1.73469571703705       -2.19086680030197       -0.73258423138200
