25
 energy: -43.480987550208 gnorm: 0.000254225854 xtb: 6.6.1 (8d0f1dd)
N           -4.46491455051577        0.84494852321525       -0.00058411848067
C           -3.35415701663312        0.55129699988595       -0.00135949079538
C           -1.97653647401398        0.20717151949109       -0.00170756013303
C           -1.18784038352890        1.36078258679648       -0.00050084467032
C            0.15189488727104        1.69165106750996       -0.00024136968002
C            0.52908691862970        3.04961210786635        0.00099808799073
C            1.91462497385691        3.15244513530178        0.00113771438131
C            2.45621683294084        1.87287703737454        0.00004554692687
C            1.41782134025366        0.92876444143221       -0.00086382156887
C            1.68808732137516       -0.43040526281139       -0.00198152159316
N            2.95498861300742       -0.86529541772494       -0.00207557412466
C            2.87021719904473       -2.19721253325535       -0.00338964241609
N            1.65272448928059       -2.71254061291536       -0.00426543270758
C            0.81602927855241       -1.64593932135535       -0.00341119975414
C           -0.52802716135852       -1.91968621553974       -0.00413291272810
C           -1.73171475640504       -1.19164835286310       -0.00345477322526
N           -2.83898935324488       -1.97635408555654       -0.00471046724521
H           -1.81186884192982        2.25378450579089        0.00045441728156
H           -0.16206601436190        3.87305278332854        0.00170750217130
H            2.47408320748216        4.07027224765674        0.00196958771060
H            3.49546753997019        1.60777609058016       -0.00010698900479
H            3.74993088032858       -2.81587171484843       -0.00370291673284
H           -0.68707194035310       -2.99504090619597       -0.00546761796101
H           -3.76055812518628       -1.57218533760016       -0.00423490475170
H           -2.74803465876211       -2.97678568006364       -0.00579443778956
