28
 energy: -51.448993767831 gnorm: 0.000756680115 xtb: 6.6.1 (8d0f1dd)
N            4.64931706544632        2.03644677539990        0.03402021299616
C            3.61459384731297        1.53684039760021        0.02140964673112
C            2.34442534147822        0.90405838321551        0.00492751258927
C            2.47930178295653       -0.47658948563064        0.00756767323992
C            1.63246838004118       -1.57367398437825       -0.00395656300325
C            2.16230420291896       -2.87772707916643       -0.01012783706489
N            1.22004321662081       -3.82520845989783       -0.01943421229376
C            0.05182785840574       -3.20174430998370       -0.01615124452723
C            0.18518500299135       -1.79029417268990       -0.00754170155322
C           -0.91914109402313       -0.95845654445171        0.00033607270596
N           -2.13819797530453       -1.51005987549048        0.00954617049914
C           -3.04014918441984       -0.52144967223235        0.01100842236803
N           -4.35001716212807       -0.76438150245324        0.02300225497944
C           -2.41664771988289        0.76073351347951       -0.00061922360445
C           -3.08344933468882        1.97906986075075       -0.00511743293408
N           -3.64923418930144        2.98209876543779       -0.00835750126807
C           -1.02691278212022        0.53238383623143       -0.00515396561571
C           -0.14493050383627        1.59712209875872       -0.01757177653443
C            1.23859444840007        1.81114607113321       -0.01381105208571
N            1.58692589881832        3.12322216016051       -0.02855181192918
H            3.52446542893819       -0.78131477882812        0.01889335096506
H            3.20409769083249       -3.14441549103699       -0.00976568488317
H           -0.87667879344960       -3.73904107262820       -0.02114855614597
H           -5.01219888080245       -0.00809522779585        0.02454721391720
H           -4.66647736332348       -1.71850234795230        0.03229452671013
H           -0.68689240303605        2.54191313691081       -0.02878417185134
H            2.55404957371037        3.40094682996778       -0.02342967821210
H            0.87914135324535        3.83640254696981       -0.03755142079486
