28
 energy: -46.627620659127 gnorm: 0.000811447309 xtb: 6.6.1 (8d0f1dd)
N            4.95965772679766        0.45198907300855        0.05679522155481
C            3.82990806321073        0.24881685499258       -0.02736896587239
C            2.45609810588065        0.02801933236128       -0.10575612963953
C            1.82190706445232       -1.20231592206158       -0.36544353171180
C            0.44371585244352       -1.06010741195925       -0.23105892275591
C           -0.40479498557705       -2.19459731171275       -0.36272947717063
N            0.06578075981475       -3.20402697978118       -1.13440060914226
C           -1.53697595188363       -2.50320015332557        0.41307560247859
C           -2.41720072833692       -1.66750614587002        1.07314970055814
N           -2.82465762045195       -0.48194791952970        0.72102771867046
C           -2.40912954949359        0.55645705702000        0.08130404099959
C           -3.27327581642319        1.56564958274102       -0.38439830688809
C           -2.50919092284197        2.67408277267078       -0.68996860377783
C           -1.14669074248142        2.41589688302707       -0.45479084240826
C           -0.99763200498732        1.09431474822744       -0.05943278210650
C            0.18894468410462        0.36901770372497        0.03479499727195
C            1.46423247946654        0.99707739546967        0.10953774782601
N            1.71245415950961        2.32025806240080        0.36975960893476
H            2.36487845847144       -2.11749777888531       -0.52181025501552
H            0.94931936271788       -3.11431651099888       -1.60287060280754
H           -0.37859650870698       -4.10515264810178       -1.11169551851105
H           -1.72522434011193       -3.56480901982106        0.53000766021247
H           -3.02355643206882       -2.10768200575575        1.86194453606646
H           -4.34016308345023        1.47701560244005       -0.44202605777520
H           -2.89171776543981        3.60895071934478       -1.06244014404950
H           -0.35702566561565        3.10505656018558       -0.68184780847154
H            1.01227512728784        2.80751973146640        0.90703982278345
H            2.66657050131353        2.53125016582141        0.62296635144661
