32
 energy: -53.524994879701 gnorm: 0.000811469653 xtb: 6.6.1 (8d0f1dd)
N            5.23590538660266       -1.11030026455637       -0.35494176613396
C            4.16014630163229       -0.74638369705996       -0.16107717416330
C            2.84868235078174       -0.33163574216963        0.05096097205029
C            2.42463254522852        0.96048094139261        0.39867864350245
C            1.03000457748376        1.00337486590716        0.40248808235470
C            0.34589929149086        2.20744117698273        0.71014083011264
N            1.03813321958561        3.06544958811938        1.50717274960973
C           -0.84255994457976        2.73003543676347        0.19285706946592
C           -1.90452935860807        2.23937791523669       -0.55967441281651
N           -2.70649795257114        3.19772000258282       -1.11429066154094
C           -2.41560114613355        0.93127410733816       -0.70315173926114
C           -2.03748489899869       -0.30957999809441       -0.26408794104570
N           -2.98696780264194       -1.27569106920156       -0.29396191997907
C           -2.41203546674792       -2.39549257543119        0.14447522938021
N           -3.10941175519322       -3.54332963303903        0.26626913650156
C           -1.02637909667776       -2.22980985193561        0.39922165684662
C           -0.73459921834777       -0.90079780431971        0.15993993760066
C            0.55786964863557       -0.34956641746253        0.11814220506825
C            1.70639740969333       -1.14690771813099       -0.08296909232180
N            1.75452286694943       -2.49153539370614       -0.39070049204092
H            3.09780344862204        1.79050766423963        0.52269333255802
H            1.92003795490984        2.78533873341437        1.89513477112941
H            0.71844958310276        4.00598222141632        1.65672085533312
H           -0.93007759415530        3.79901093479882        0.37604299300794
H           -2.44024374466833        4.16475241389333       -1.09448074873304
H           -3.50706099528640        2.93155525807278       -1.65700901326800
H           -3.40661158952579        0.90427632404241       -1.14616325613694
H           -4.11009639352586       -3.48782564029453        0.18523655209359
H           -2.71140902722926       -4.30833819730981        0.78175080701669
H           -0.37610492746345       -2.98246770192687        0.79825755297926
H            0.94456904195899       -2.84021038430957       -0.88438146475353
H            2.63432338407762       -2.78317822455303       -0.79384827501561
