31
 energy: -55.397499620785 gnorm: 0.000527427782 xtb: 6.6.1 (8d0f1dd)
N            5.10350500585989        0.47078135186995       -0.68473067705891
C            4.02596905047191        0.21498327617353       -0.37515245918853
C            2.69942389442349       -0.08970951693187        0.00322778686579
C            2.63204090169133       -1.21465850905396        0.86980608212226
C            1.67601397147864       -2.15887495814281        1.08900371388721
C            0.39385629876542       -2.39084928509854        0.54006030543102
C           -0.17339603249440       -3.65136708607838        0.57151076413575
C           -1.46882399895589       -3.61115837736520        0.02328139678892
C           -1.78464845469997       -2.29889749431596       -0.27916938722753
C           -2.97116783297019       -1.90190035859780       -0.90050758243799
N           -3.95656647732769       -1.62056061192422       -1.42264708918600
C           -0.64465798688510       -1.46984637993668        0.02799085199006
C           -0.68856765445334       -0.09634303807488        0.04350521665777
C           -1.93785991838487        0.60873975669747        0.17660055047383
C           -1.67898343848515        1.94644699799484        0.27103910210210
C           -2.57307137760439        2.99185048499485        0.52639654075575
N           -3.24976032275406        3.89433449664567        0.74234339725847
C           -0.25427198393625        2.15463916906530        0.08894947927314
N            0.29847140539906        3.40383706973069        0.04591113094100
C            0.35953225258434        0.91717174743957       -0.03237741193548
C            1.72725764277494        0.79151601472341       -0.47029692301888
N            2.13206671972578        1.76335935394536       -1.32786566508215
H            3.58751717747601       -1.42246169023035        1.34243195108453
H            1.99730254465731       -2.97600245951032        1.72676596750449
H            0.31416771464922       -4.53923722302280        0.92967999341251
H           -2.11079111608087       -4.45857504342185       -0.13679298044913
H           -2.89630420995011        0.14512660942187        0.30108248283496
H           -0.28282206808185        4.15542784168766        0.38466515110305
H            1.28150749302236        3.49049311452106        0.24943720626327
H            3.06721022028906        1.74018537240197       -1.70121092701103
H            1.45026033219688        2.35408973939096       -1.77059915419052
