29
 energy: -49.581344447008 gnorm: 0.000838537051 xtb: 6.6.1 (8d0f1dd)
N           -4.44409742095417        0.86432097495331        0.13311259032207
C           -3.21672899422051        0.31978406600170        0.08576052441148
N           -3.01893707837397       -0.98507246066790        0.34216166805812
C           -1.69618720665697       -1.16793348275918        0.22720096862160
C           -1.19655973137669       -2.44556100186086        0.39091396338991
C            0.05051798126665       -3.02720780300677        0.18760256488355
C            1.31248778421443       -2.59790655846957       -0.14813471933787
C            1.98124521223864       -1.35410467107680       -0.27266350498236
N            3.30527756814645       -1.49553519424570       -0.56520601646570
C            1.54158692006348       -0.03421327776707       -0.08238971819819
C            2.41992764995497        1.06736319853693        0.00918247191721
N            3.80287071568006        1.06053451568011        0.14953867028050
N            1.80308491374196        2.26055200094152       -0.05135938556151
C            0.50480969538084        2.01045672812527       -0.20185382141524
N           -0.40983624864471        2.97401154601117       -0.35466015148748
C            0.20967467694728        0.59552096772731       -0.15798722169662
C           -1.08837391764445        0.16080717219895       -0.08515905549975
N           -2.12407669940329        1.03962244318985       -0.17877664937764
H           -4.57759718785619        1.79251271906123       -0.22414902718683
H           -5.22632797473822        0.23864092227985        0.20192562286918
H           -1.98196943104710       -3.14330607273935        0.65691875668863
H            0.00733849804217       -4.10821029123514        0.29057830641722
H            2.00026564795145       -3.42422876049143       -0.30984210074893
H            3.64847889347737       -2.40276066460939       -0.82948205400495
H            3.82203885196225       -0.68384438452032       -0.86488222999078
H            4.14224679144632        0.43586301823659        0.87002625734610
H            4.13247913156090        2.00792843982130        0.28857508441082
H           -1.37237549498892        2.63588299531354       -0.29248554837055
H           -0.14027134047254        3.92234970266873       -0.16036115539058
