30
 energy: -50.084841833962 gnorm: 0.000913109633 xtb: 6.6.1 (8d0f1dd)
N            3.73916778096476        2.69019761003256       -0.88064903243686
C            2.85690349150670        2.02337330165151       -0.55748590630979
C            1.77667379194515        1.23025690013773       -0.14186601563193
C            1.85299094445099       -0.11600708525376       -0.41287908982475
C            1.06954906625522       -1.22197810872103       -0.06513906226500
C            1.62084069004545       -2.52120642659900       -0.11066736698882
N            2.90975562158991       -2.86564085080138       -0.41200068780863
C            0.61286586152638       -3.46499426347329        0.19474864841911
C           -0.56796686735095       -2.79624673313973        0.36764078325984
C           -0.35769192853458       -1.39144830076261        0.23261732731409
C           -1.41941059063657       -0.50522847025594        0.18020712251090
C           -2.75640156760485       -0.87002050438623       -0.02758094749943
C           -3.50280255895902        0.27472047295806       -0.29482857439488
N           -4.81740732300640        0.31671502421315       -0.59775804979228
C           -2.66880807150782        1.42052905236605       -0.16427120065417
C           -1.40571332936190        1.00346466067899        0.17349463641212
N           -0.48697255248217        1.83136902547633        0.64144890375922
C            0.79152555805266        1.92596345381396        0.67705204182624
N            1.30388701512274        2.84920412236157        1.53594909263100
H            2.76874565144181       -0.38496476900939       -0.93599107743135
H            3.19112027086417       -3.80148561804336       -0.17301096093834
H            3.62733569141982       -2.16498964910252       -0.33381909558145
H            0.76936066358204       -4.52619177399328        0.27122574432362
H           -1.51014859244913       -3.24735500908469        0.61259069937750
H           -3.13775763318147       -1.87090007975402       -0.08050490684691
H           -5.22220825866377        1.17265888073435       -0.93302073004480
H           -5.31920722951624       -0.53953280071923       -0.75125839347765
H           -2.98873590476351        2.43913053991158       -0.26964745475482
H            2.25263938350851        3.16218389778246        1.41729757229119
H            0.65322972874257        3.45892874578033        2.00186404835661
