27
 energy: -46.943815163761 gnorm: 0.000827075879 xtb: 6.6.1 (8d0f1dd)
N            5.05912895261848        1.08748324415854       -0.01013191747363
C            4.01729693798761        0.60036225386757       -0.00148934605555
C            2.73313110332745        0.05270840793692        0.00563943458153
C            2.39171729876757       -1.29906389235154       -0.00044233492283
C            0.99693761636682       -1.44992243821885        0.00551550633074
C            0.46952337198310       -2.72664388976376        0.00683636705300
C           -0.79974844833229       -3.30408436259045        0.01157618284743
C           -2.09441857269125       -2.81735098788116        0.00280369528557
C           -2.67885295055136       -1.55799725113857       -0.01484274329007
C           -2.21096418049684       -0.25506271607146       -0.01734398897790
N           -3.13004656089761        0.72091765337246       -0.03157137223541
C           -2.43463023238241        1.86773816260814       -0.01746534745859
N           -3.03675051958782        3.06004437060068       -0.03963387029214
N           -1.09860501185352        1.73792278729346        0.00527565060129
C           -0.86569866347172        0.40809609787943        0.00332589875804
C            0.42784260756481       -0.07377210504131        0.01366084196691
C            1.53829436385234        0.81823787994250        0.01733568678819
N            1.46198906993214        2.15413568077909        0.04241897694614
H            3.09924734522385       -2.10834569368644       -0.00792824161159
H            1.25699881942439       -3.47608353275697        0.00495483179596
H           -0.75878643963987       -4.38816969424919        0.02013302037932
H           -2.83594974638317       -3.61044212003241        0.00695756322479
H           -3.76323051599242       -1.56837919170337       -0.02634501386005
H           -2.49156839671025        3.89866908138149        0.03936253275165
H           -4.03908417361682        3.09252172841522        0.00053249553258
H            0.51606115739681        2.52916755098155        0.00979161854850
H            2.29377356676194        2.71395848736841       -0.01754744011391
