33
 energy: -63.646230171257 gnorm: 0.000765490273 xtb: 6.6.1 (8d0f1dd)
N           -3.47430698149065        3.64820035100842        1.13213064863835
C           -2.75834457486713        2.81873485377575        0.78513181832774
C           -1.89350252815106        1.77971428291386        0.36865084118891
C           -0.72234581409924        2.26320136358680       -0.22528750572010
C            0.54654918261202        1.75255002877138       -0.43893147594775
C            1.40994755254982        2.69194092604874       -1.06247202855964
N            2.04218443164394        3.45276215606417       -1.64313595455739
C            1.17555197542443        0.53462853836450       -0.06981186299118
C            2.55118055893595        0.44870403901885        0.11596156901374
C            3.51253452866799        1.46062577121851        0.18726014386685
N            4.38704112744407        2.19432324213028        0.32288743914205
C            2.91167357382063       -0.92518809994348        0.35249975498588
N            4.14525330842896       -1.35254616664378        0.62304474281688
C            1.74502654441614       -1.69787968332125        0.25415856002513
C            1.75532277309519       -3.07440303237394        0.48791816502915
N            1.86901599426166       -4.19703238223485        0.71131152745703
C            0.63719594593564       -0.83836389422676        0.01495920240538
C           -0.64195234179441       -1.29822336014453       -0.23088764937087
C           -0.89449341533949       -2.63700320714258       -0.68867453820715
N           -2.16311853537442       -2.86844329424175       -0.88560565716326
C           -2.83765157267652       -1.75489941604017       -0.48327478351410
N           -4.20693899879369       -1.76716264868594       -0.52628766338981
C           -1.96889894981939       -0.72133088792368       -0.09278544192856
C           -2.42731856295312        0.47547391544863        0.52013856885004
N           -3.59164090651190        0.37817583881385        1.19178013363757
H           -0.79309472517751        3.31963961477752       -0.47697011054598
H            4.90529800715592       -0.69457771701093        0.68294339865745
H            4.31846960098869       -2.33115549089676        0.78380523906911
H           -0.15419554683037       -3.36536624935137       -0.95731598505249
H           -4.56429401509123       -2.57521083028343       -1.01600608261014
H           -4.67009503528037       -0.90192615064712       -0.76342928188489
H           -4.00980211472101        1.19399440428556        1.61044002446730
H           -4.01460187812162       -0.52374897410686        1.33385107665611
