32
 energy: -58.348706243623 gnorm: 0.000663656523 xtb: 6.6.1 (8d0f1dd)
N           -4.63953352608941       -1.47825127684753        0.21285660775426
C           -3.57126320902608       -1.05234779932483        0.14948254835540
C           -2.24240404485653       -0.57917050342417        0.06828851399360
C           -1.35198650338320       -1.66781770368427        0.00542369547879
C           -0.00430302535540       -1.89749923619061       -0.03069874814850
C            0.49283109240367       -3.24472550007067       -0.08992162141147
N           -0.24942907748378       -4.37759917267574       -0.13873489717847
C            1.88403148076817       -3.23757295756600       -0.03457076001617
C            2.32790829482922       -1.92067750082249        0.04919804873246
N            3.59026106069909       -1.49762457243704        0.13485608684009
C            1.18638274970135       -1.03366086132825        0.03118696303127
C            1.34986803942017        0.32492618522874        0.03641142982820
N            2.60057432673971        0.87095664601339        0.07203360455829
C            2.41899066850455        2.18556152041004       -0.01063815331647
N            3.42179629891316        3.06917028490386       -0.03153403378878
N            1.13498509474913        2.59150247064563       -0.09067858857598
C            0.40061221599397        1.48059169733373       -0.04956323260425
C           -0.98535711202164        1.66845309710211       -0.07526986726873
C           -1.28239143403732        3.04970916113207       -0.19205627119904
N           -1.58003550115014        4.15623963724869       -0.29601081659430
C           -2.12811466000035        0.83096815844630        0.03377155543596
N           -3.30597670264960        1.49808046453797        0.09812081378039
H           -1.92493716686501       -2.59334461123595        0.00490703026766
H            0.22813846457202       -5.24007574932504       -0.33327805399032
H           -1.22195202745406       -4.33540202286786       -0.38935552011760
H            2.51291992691785       -4.10890339677571       -0.05380373084880
H            4.35441499314967       -2.14621619384391        0.07725989914388
H            3.69498187361279       -0.47919916023316        0.12954182048872
H            3.18976192501206        4.04569113723864       -0.03662526869858
H            4.36641132647043        2.76533596138950        0.11510098986886
H           -4.17401995435173        0.99213422992440        0.15538464429446
H           -3.31963675703362        2.50370166779810        0.05767513390449
