29
 energy: -49.584406581603 gnorm: 0.000972560943 xtb: 6.6.1 (8d0f1dd)
N            0.73371934235545       -3.92817919187572        0.64400669946837
C            0.36131976160730       -2.73901274042567        0.09044680327662
C           -0.98515901437694       -2.64975528013747       -0.34598344073057
C           -1.81790934319011       -1.56052155260945       -0.41935556523001
C           -1.72268036200747       -0.20468075017719       -0.10399815773932
C           -2.87803955644539        0.61149459234906       -0.08928240987264
N           -4.17256122624842        0.21462425296351       -0.29187084942396
C           -2.54008972591078        1.93307492630133        0.25523129346909
C           -1.17516773352256        2.00757806485387        0.43584398111034
N           -0.44028242015629        3.07779722911978        0.80102293128916
C           -0.59787922595371        0.69258524653479        0.21398951728016
C            0.75682724932332        0.53677293580075        0.14549544474579
N            1.62562505667107        1.59367874783003        0.16403337383977
C            2.76081229174236        1.10567338789845       -0.32460355488266
N            3.83579140818678        1.87858128626907       -0.56373635191577
N            2.78758740468903       -0.21589677527800       -0.61109245520622
C            1.58836598603738       -0.66085838907933       -0.24756316501067
N            1.36160705282166       -1.92611408534773       -0.10121995262033
H            0.04305648326434       -4.59440683356194        0.93653399419622
H            1.67258514202876       -4.00527570800785        0.99441938943212
H           -1.45467550478921       -3.61192200414151       -0.51333493360997
H           -2.82699860164783       -1.84599893073018       -0.70618537929742
H           -4.83148249847112        0.95357855594439       -0.47517831366065
H           -4.33053220592492       -0.63099928668907       -0.81525506933084
H           -3.23952140152931        2.74308403832311        0.35946661953306
H            0.56192828794755        2.93903189644211        0.65779248178887
H           -0.84430979325133        3.99313359605448        0.69568360120631
H            4.69162181287752        1.40667730687738       -0.79591012777311
H            3.87365277587277        2.79000349129883       -0.14371101703232
