30
 energy: -50.098670712541 gnorm: 0.000785806630 xtb: 6.6.1 (8d0f1dd)
N            4.97806785137233        2.22726169747087        0.36235820564513
C            3.97242887367770        1.68477390448250        0.22504136275864
C            2.75717065672713        1.02134488664952        0.05158291482287
C            1.48398943790956        1.55469936576083        0.27814756945129
C            0.52217567184335        0.56560778184322        0.03751361838990
C           -0.86580932969765        0.84828039221046       -0.00101579707368
C           -1.36313166198698        2.11846157858985       -0.14158657830467
C           -2.78998938012335        2.08624559678991       -0.10187961022443
N           -3.57874547775760        3.17783265466477       -0.21567140976269
C           -3.19463965898238        0.77882264517251        0.10784276080524
C           -2.05788470851118       -0.04865793684386        0.17924711206419
C           -2.15156924389282       -1.36417157433765        0.55562543414426
C           -1.18024650749453       -2.39660549965583        0.61979924231760
N           -1.47670108313572       -3.45361152425376        1.42925112462285
N           -0.15549201720921       -2.58826157434096       -0.16290099500763
C            0.73574298954356       -1.87860425895571       -0.79690689786322
N            1.34571039022095       -2.49101402524758       -1.83609788931535
C            1.24882575044165       -0.61542843046862       -0.38407542591649
C            2.60476917605102       -0.30250354596362       -0.40087047661374
H            1.28890548881689        2.55103101143559        0.62663939322851
H           -0.78855426809026        3.01148057258645       -0.29737110159433
H           -4.57071469503038        3.06314290205661       -0.32605364718454
H           -3.17027121938988        4.04934912575531       -0.50363114503643
H           -4.20889297689261        0.43703536878080        0.19745680878813
H           -3.13893009332823       -1.67930986560155        0.87743330831823
H           -2.18064354879418       -3.35231735812678        2.13780086385123
H           -0.77749782578359       -4.16545996438508        1.54973533783427
H            2.15307311888755       -2.06435701789696       -2.25351198432346
H            1.12240718102786       -3.44782445793416       -2.04804291355917
H            3.41327116378101       -0.97238371423695       -0.63634882036259
