32
 energy: -59.127518962043 gnorm: 0.000892671409 xtb: 6.6.1 (8d0f1dd)
N            3.36240490611281        1.71424052084770       -2.11983832652081
C            2.54925809693711        1.60329179425767       -1.31788108758726
C            1.50179699159757        1.45035802514530       -0.37663659019356
C            0.82006842243990        2.55950264072078       -0.02150101569558
C           -0.26380598398087        2.68385431379279        0.91674492349736
C           -1.36836324108254        1.92386455257247        1.00770785208271
N           -2.38687529990586        2.26265319004917        1.90549992366984
C           -1.74162768630414        0.82442647066465        0.11098250756157
C           -3.05550683220084        0.68401307913835       -0.41695052304365
N           -4.05049114339666        1.55918105358184       -0.31278014747500
N           -3.23164352024822       -0.49275004321545       -1.08408796639356
C           -2.10937367401021       -1.15932189712432       -0.94960590217854
N           -1.87045144532387       -2.29504366366447       -1.58342731984540
C           -1.09163052664188       -0.37152431777334       -0.17431855111723
C            0.21726671102099       -0.76517608975791        0.09363957893648
C            0.67667317515641       -2.10131232365094        0.42220311247096
C           -0.12919243782236       -3.22269408275001        0.61461236738323
N           -0.79700678263020       -4.15091451884624        0.75343846150922
C            2.03014447501882       -2.04754902271254        0.67264273853838
C            2.46997134739514       -0.71392707067465        0.43455973119729
C            3.79416051335594       -0.28202202904611        0.57135821871222
N            4.87982817264870        0.05606224317866        0.73293370400857
C            1.36829143144863        0.07919316030802        0.11492708074986
H            1.18331486222176        3.50054029308816       -0.42254183858922
H           -0.19417935335956        3.54628263375979        1.57068667648992
H           -2.09110294911352        2.89110214424757        2.63988217078089
H           -2.91115537364948        1.47534274004677        2.26194459290790
H           -4.94729104715666        1.32860736198332       -0.70463817115519
H           -3.90833993763166        2.40997656716722        0.20824594210692
H           -2.62136536842179       -2.70327150844668       -2.11735820282107
H           -1.07631440218961       -2.86767251906749       -1.34155317244446
H            2.65414899921585       -2.86060898712055        0.99371518645680
