28
 energy: -52.231317635402 gnorm: 0.000770084793 xtb: 6.6.1 (8d0f1dd)
N            5.06710401426096        1.84771783992675       -0.25156799079025
C            3.99413275758842        1.44053937279981       -0.24699096567558
C            2.67025812653202        0.95291176146854       -0.24734490540960
C            2.43852021159835       -0.25257686847733       -0.92606442824279
N            1.52226507988807       -1.10232810108258       -0.62386357345428
C            0.35893865955293       -1.26292536072554       -0.11231603001015
C           -0.10279729628779       -2.49487537560764        0.42295428608305
C            0.70642421924561       -3.57081710483972        0.79625451586711
N            1.36820044995074       -4.45483904551764        1.11228815647706
C           -1.49550356541802       -2.45692702591619        0.43532348959667
C           -1.96217108216156       -1.22023736608865       -0.03736978734580
C           -3.32832503171187       -0.95050170057292       -0.07204295187532
N           -4.46995123022484       -0.79518021896989       -0.08989611253945
C           -0.84065416839531       -0.36799340319281       -0.27106572296193
C           -0.76936638065257        1.00427379514929       -0.31804995433469
C           -1.90490221845633        1.88189971506811       -0.45816108907286
N           -3.02252561556868        1.63602279479699       -1.16203405879855
C           -1.59567340393858        3.11222719907511        0.13577605148227
C           -0.29076115960930        3.07578164308461        0.58734116240657
C            0.33361632554910        1.86313520010361        0.22516202212205
C            1.70404456958906        1.77091252722320        0.35971385847039
H            3.16808808835198       -0.59839862681921       -1.65178355681714
H           -2.13365930183620       -3.25964079590889        0.76093780265152
H           -3.80687115228295        2.25615010151809       -1.04697742962550
H           -3.22980263093787        0.70957053131703       -1.49534825919855
H           -2.26387849426320        3.95088872849922        0.19402521819442
H            0.21856532431983        3.88740177718750        1.07429695107911
H            2.13505975771223        2.62825889800997        0.86940464371983
