29
 energy: -55.984129201380 gnorm: 0.000887917988 xtb: 6.6.1 (8d0f1dd)
N           -5.53254485426105       -0.65265475828200        0.96592429478064
C           -4.44987039217840       -0.37467777631648        0.70187902687277
C           -3.13883679887120       -0.00848052361252        0.37642209922386
C           -2.75865166764598        1.24959515506941       -0.15770807285572
C           -1.38599362705213        1.26097941298841       -0.30267144677194
C           -0.63918404831932        2.34494795429672       -0.86553655562324
N           -1.15959326958917        3.00450311544802       -1.91279119742010
N            0.41792861852259        2.85042990542465       -0.30014680769293
C            1.46982006696260        2.49963258533901        0.35095931374136
C            2.19737324739704        1.29754269526617        0.26929087114901
C            3.56382715365706        1.40363669550349        0.62846176196725
N            4.66069381135890        1.53318511695512        0.93545629670086
C            1.76907197194418        0.01000035328760       -0.06645124461621
N            2.70281770306273       -0.93558472967127       -0.19525634271076
C            2.08076729536225       -2.11808513843228       -0.25297501961034
N            2.74330153240284       -3.25959581074073       -0.41350683190895
C            0.66031642102345       -1.97306339615146       -0.12789264314258
C           -0.19396485231246       -3.07100355243712       -0.19266621301213
N           -0.80734195630308       -4.04180818381188       -0.26596399490561
C            0.40028230771602       -0.60102276836843       -0.05033374516051
C           -0.87719508258856       -0.04450073051754        0.10241187440930
C           -2.00331531536108       -0.80029577274834        0.49038320729418
H           -3.43122802180899        2.06405958787246       -0.35656236235374
H           -0.71232043058884        3.83668764156673       -2.25879766903203
H           -2.05353696035515        2.73112785935229       -2.28214167619822
H            1.92775336820372        3.30269916221333        0.92392960256801
H            2.25286664686866       -4.13786394581318       -0.42947303889722
H            3.74567175378581       -3.23258716986317       -0.49236979351968
H           -1.98478310733315       -1.80938105821694        0.85388953122488
