29
 energy: -50.375164124356 gnorm: 0.000838577202 xtb: 6.6.1 (8d0f1dd)
N            5.20400092105244       -0.64405243904651        0.01275520675640
C            4.14238444904545       -0.20443754090893        0.07143551036482
C            2.86190851238241        0.33845914995504        0.14041800824434
C            2.54261856492556        1.68549684971279        0.46306208213406
N            1.25913555212047        1.91110968970045        0.41203477421330
C            0.62696958953836        0.71652664059558        0.09870539344492
C           -0.74150681687764        0.71623235970992       -0.06261403396493
C           -1.51106116115071        1.98732006098575       -0.16693189653770
N           -0.90732556380544        3.17977087585066       -0.21009664319558
C           -2.83792714341966        1.68158755326553       -0.30690650476110
C           -2.97900922986775        0.27100490999552       -0.21741005004988
N           -4.17317367910077       -0.37355570776478       -0.22305396695026
C           -1.71361404360748       -0.32844678501941       -0.10257617151794
C           -1.49994284143502       -1.70750569373330        0.28310622883249
N           -2.45940177393207       -2.25015379877953        1.10425205526279
N           -0.60448374275559       -2.52154631183716       -0.13349618288915
C            0.53858456981098       -2.46721944767184       -0.80118829196635
C            1.59560656459345       -1.61684168230937       -0.65017390144256
C            1.64734766401108       -0.32231337168587       -0.08260125524613
H            3.23874967920033        2.46280926760152        0.72629693571192
H            0.08131982081172        3.15888870966219        0.06107339532094
H           -1.45600997884710        4.02124807562120       -0.22165859426437
H           -3.64736454623422        2.37569981798426       -0.43011723899279
H           -4.16998127641587       -1.37129706726684       -0.35891237131499
H           -4.97504498689718        0.13196025721445       -0.55918517213098
H           -2.97167824343470       -1.61796058821843        1.69681267289369
H           -2.22304330196603       -3.14431686441658        1.50618432642238
H            0.69431211533643       -3.34735292159820       -1.41999576270766
H            2.53867178691951       -1.95162580269889       -1.06444745176954
