31
 energy: -58.647083422364 gnorm: 0.000639517366 xtb: 6.6.1 (8d0f1dd)
N            5.08461020038265       -2.41788381744575        0.58404422023992
C            4.07064439741904       -1.90071554467212        0.42040159942476
C            2.87711703780101       -1.20475136810874        0.21859681429003
C            1.58785891371369       -1.66275616115737        0.35111932802855
C            0.68715100924612       -0.58242049358844        0.12342065869407
C           -0.67918735267802       -0.79986048686259        0.09691202628380
N           -1.17176771127370       -2.04889514671195        0.02113520401533
C           -2.48665907873969       -1.94552145476218       -0.18708039233531
N           -3.25885856505681       -3.02024022993755       -0.35853900795477
C           -2.94263176828886       -0.58640647477893       -0.20547644403439
C           -4.26528116880894       -0.19758222322793       -0.37095886581540
N           -5.37594840765192        0.06449825558724       -0.52389540921910
C           -1.81260501379737        0.19123506632452        0.05562924694236
N           -1.83240632539555        1.44030344043497        0.43747200201683
C           -0.89029130823416        2.33891527773226        0.58194326874948
N           -1.08330595295669        3.24873718144473        1.56599770360016
N            0.09911188124399        2.59741520362210       -0.26937240264664
C            1.05927797813110        1.85618624382627       -0.72394309708747
N            1.83695871932625        2.42737558711697       -1.68086199075869
C            1.49671668742000        0.58014710477271       -0.21644551446677
C            2.82647930082767        0.18214480199711       -0.17628566197569
N            3.94777252974468        0.91215417416594       -0.47548793530178
H            1.27342480818495       -2.65220959274203        0.61765465341501
H           -2.84591887433710       -3.93421516377153       -0.29772031076212
H           -4.24057538215491       -2.91411855702499       -0.54592670773126
H           -0.55170482170087        4.10113338029765        1.54290121093588
H           -1.96870074638856        3.24133116031512        2.04260674418583
H            2.45378927927819        1.84203696067338       -2.21736279559587
H            1.48341098050794        3.26569694707919       -2.11175249192916
H            3.86990642769441        1.91465259622104       -0.40082796073296
H            4.81531654414155        0.52542796677954       -0.13430898317361
