31
 energy: -54.609987321212 gnorm: 0.000663697426 xtb: 6.6.1 (8d0f1dd)
N           -3.91308134716193       -3.24045812087191       -0.83141724237767
C           -3.15474548585641       -2.40558039778919       -0.60528965284463
C           -2.21472146242695       -1.37996858990565       -0.34449707040149
C           -0.90273005475653       -1.83350353432447       -0.53039702649560
C            0.36775583128628       -1.35851134536619       -0.29295701218714
C            1.43269539311287       -2.28981945959456       -0.28751729305729
C            2.59174069043089       -1.65744887331954        0.12970531084718
C            3.84068897929100       -2.23636382638924        0.36290708561911
N            4.88087965113541       -2.67453265082703        0.58386448900239
C            2.30516358343019       -0.27275604781485        0.32224170104258
N            3.25327244447932        0.63214334784858        0.72571580820941
C            0.94985416781508       -0.04620946155585        0.03294302514764
C            0.40610932951065        1.24431020917974       -0.09496957185325
C            1.14308547454469        2.40241573920057       -0.23848284631021
C            0.22028292995570        3.48259530669662       -0.23060475437536
N            0.52134295080049        4.78290825244050       -0.36259176274968
N           -1.03462873237853        3.07347604897422       -0.04146477040926
C           -1.01008305388387        1.72177928537941        0.00479546787005
C           -2.23210488034083        1.12777306788167        0.19525953546790
C           -2.78581755876922       -0.16247881315864        0.09790814871926
N           -4.10695897399397       -0.21655181505040        0.40777268637449
H           -0.89092719547362       -2.87463954008418       -0.84858033236883
H            1.33767886244208       -3.33787125190556       -0.50409145728722
H            4.09031976550451        0.21982769236906        1.11208300435762
H            2.90937057378442        1.43843676394347        1.22539205749688
H            2.19143653970816        2.49771548036329       -0.43565965064433
H           -0.23436573068008        5.44224426770375       -0.42720165381731
H            1.44723330403284        5.06544509833924       -0.62896109697565
H           -2.98392989133069        1.88832287528163        0.38917714952623
H           -4.62536531410886       -1.07080438169304        0.28760449882322
H           -4.60574602430376        0.62550890804752        0.63374955795066
