35
 energy: -67.887780253957 gnorm: 0.000430450502 xtb: 6.6.1 (8d0f1dd)
N           -0.60131545884774       -5.28186473472215        0.89478355158017
C           -0.47168419838429       -4.17204654012647        0.62764238538642
C           -0.30469763950952       -2.80188518647528        0.31637737538826
C           -1.32171988775563       -2.30417758329883       -0.50111906622295
C           -1.82745972091320       -1.03090573270653       -0.70134240163741
C           -2.97199675299958       -1.00069262952710       -1.53949695832802
N           -3.84322417041212       -0.99450106842460       -2.28545131898519
C           -1.48651898556479        0.22073140210665       -0.12651554650793
C           -2.43762371961169        1.21896087143586        0.07136903220263
C           -3.83127808245828        1.13708433380518       -0.00153840196840
N           -4.97969825230665        1.16990256152228        0.02274819814492
C           -1.78033423175051        2.41616557291802        0.51022428321961
N           -2.40031925964926        3.53885200366698        0.87819176248063
C           -0.39589912901162        2.17677203731158        0.48533991872990
C            0.52383613499355        3.10828353014266        0.96638669783550
N            1.23130419449006        3.92045604223022        1.37234203027749
C           -0.16127210357686        0.81868944498513        0.12112355655864
C            1.08852984923126        0.25848602126088       -0.08002074087167
C            2.25694971219692        1.01626779644371       -0.46014155774754
N            2.27988178728099        2.22027466608174       -1.07012107129260
C            3.37780427023322        0.18859535521854       -0.32286296497753
C            4.68829171027946        0.54400075689287       -0.64837945544263
N            5.76072016859271        0.85760595381031       -0.91773298560327
C            2.95190640802368       -1.05554973424059        0.18875166871597
C            1.56809178047038       -1.08395284565984        0.27683113489413
C            0.90037371769388       -2.22800993776263        0.79792788205397
N            1.59101795607527       -2.95391706531499        1.69818111196124
H           -1.92563453206966       -3.08371162707074       -0.95891437111834
H           -3.40652834598283        3.57589428348895        0.88836854142889
H           -1.87240124067230        4.32800099379962        1.21228771459709
H            1.48111414889436        2.82849197487826       -1.04761088302234
H            3.17801435811442        2.64501701299177       -1.23111313412097
H            3.62171152053936       -1.87432878675562        0.38171165879077
H            1.26495545150574       -3.86596365025570        1.97747726230301
H            2.49711750356325       -2.64699611324776        2.00623014889830
