32
 energy: -59.936493619949 gnorm: 0.000837342496 xtb: 6.6.1 (8d0f1dd)
N           -5.96669709174564       -0.51532728650003        0.14091703674498
C           -4.84893102800595       -0.26353068331984        0.07520181132881
C           -3.48574819367437        0.05647820089681        0.00703963754045
C           -2.95363740855616        1.33549942552108       -0.15780287815544
C           -1.54916296855316        1.26317504549443       -0.10996093817336
C           -0.83415951119104        2.44406596192473       -0.22450995552250
C            0.47570814285542        2.86689422818653       -0.02870077841583
C            0.60546053376382        4.26465747382591       -0.24095279330278
N            0.70056302662900        5.39356107184337       -0.42789596048503
C            1.66874412733212        2.22591031538809        0.39969564085832
N            2.69582360909185        3.05621595969742        0.70448504355438
C            1.98404624378890        0.86117770539263        0.52338527650240
C            1.39358936627416       -0.35851993910930        0.28160482288839
C            2.22777909316988       -1.51307453363175        0.32290323992553
C            3.59555850422767       -1.52463333781146        0.58946512880830
N            4.72373854623478       -1.54889507537632        0.81560766322859
C            1.47267236082890       -2.64886924818893       -0.00509882151276
N            1.91120180961065       -3.90361371323685       -0.12537376208941
C            0.11981548054646       -2.22542817981413       -0.19806981142642
C           -0.83581346891697       -3.16556204704307       -0.58863896307546
N           -1.50665188119341       -4.03503487043101       -0.93324750149585
C            0.02100174390848       -0.84050330625281       -0.00256397207841
C           -1.20806109509881       -0.16503902481230        0.02592158357227
C           -2.42245643816534       -0.85471052559021        0.09926392750383
H           -3.52486282954132        2.23928882851113       -0.26391251341678
H           -1.48608414175748        3.27968195483202       -0.47292358491593
H            3.59323603088426        2.68464374555413        0.96327506659993
H            2.59734631371182        4.05322604669804        0.60657398639436
H            3.02588371823228        0.73357341435373        0.81433832394536
H            1.27367036754766       -4.63547034811185       -0.39309641411588
H            2.88244338916188       -4.12027956946477        0.02197954412582
H           -2.54530649240017       -1.91129187082604        0.23570776595947
