33
 energy: -58.841418759516 gnorm: 0.000738617516 xtb: 6.6.1 (8d0f1dd)
N            0.66550810776363        4.92523364738683       -0.07188321691694
C            0.95671968340905        3.81532607816309        0.01249472445347
C            1.28342943459614        2.46091489444966        0.08236020378301
C            2.51455566268592        1.92797143794367        0.45180393735287
C            2.44677102454066        0.53279232053263        0.36795770495900
C            3.47851833570066       -0.30903338226575        0.78351447885900
N            4.34255430828413       -0.98464213410888        1.13425491469386
C            1.12727249051373        0.14370512795208       -0.00752155772113
C            0.73625657246712       -1.14035511424157       -0.34199191373891
C            1.63871281975149       -2.17503292578741       -0.78968698110849
N            2.83159322066861       -1.97950024277521       -1.41652047166554
C            0.98199103105398       -3.39336575339363       -0.71279492776997
C           -0.29687812074745       -3.17948880090883       -0.19726945396106
C           -0.53642721606048       -1.81172621768153       -0.04252311328714
C           -1.77127829757854       -1.34230046558163        0.45664405853303
N           -2.43204789675316       -2.19309470435425        1.27408303425781
C           -2.50397894576020       -0.19107134163910        0.05048166476865
C           -3.88455233477962       -0.27313377060785        0.32061198656698
N           -5.01201144633146       -0.33599077409374        0.54884420935527
C           -2.13488507300853        0.98906924772730       -0.63559879285262
N           -3.13726475880524        1.65671144147638       -1.26187342702148
C           -0.90323138349955        1.67455377752553       -0.61805570922223
C            0.35892829682032        1.39765793922309       -0.14824288136480
H            3.37558632802167        2.49036671268971        0.76602998281365
H            3.42799880433521       -2.78516535803698       -1.50570948755636
H            3.31317147144584       -1.10656250189363       -1.28472836653339
H            1.38775748003107       -4.34203295581709       -1.00916156088462
H           -1.02027114236156       -3.96281573359311       -0.05385752107326
H           -1.99820150979489       -3.05858984697764        1.54054982036905
H           -3.39472674676968       -2.03287874594266        1.52024443695019
H           -2.98544581890699        2.59740328428823       -1.58308793573128
H           -4.08592927182421        1.32621339172826       -1.19691511732989
H           -1.00741651650786        2.70510287071734       -0.95061360707068
