31
 energy: -58.638797263310 gnorm: 0.000779901913 xtb: 6.6.1 (8d0f1dd)
N            4.79963712130075        1.94836676109512        0.15057138335227
C            3.81658406459256        1.35261669719679        0.09032007365676
C            2.63341484922818        0.62464715204015       -0.00728743169765
C            2.49183509227481       -0.61636613353904       -0.67461944385125
N            3.52866772443206       -1.26054997983534       -1.25991558017849
C            1.17250510063607       -1.09114578642966       -0.48935818652469
C            0.81744986264472       -2.37119640320854       -0.90606735811010
N           -0.07520723066906       -3.19949719732940       -0.44424996118080
C           -1.08600329429873       -2.93707433538120        0.37369414378951
N           -1.29155511691047       -3.81289048732465        1.38052798969837
N           -2.03711423267072       -2.05109421205402        0.16688773502275
C           -2.05120863385729       -0.79347367988601       -0.11304221630661
N           -3.19855275055180       -0.19205224393444       -0.43485981400651
C           -2.99454258573721        1.11930811982492       -0.29934332810981
N           -3.95961307966375        2.00928744464413       -0.53535701326435
C           -1.66022664859350        1.44291306608505        0.11333688879265
C           -1.28882060174699        2.76995272436921        0.23474757966324
N           -1.09354018171473        3.90555968956906        0.32806828797209
C           -0.94829105719836        0.22284949743917        0.13888726675735
C            0.41665804616079       -0.00785845851566        0.18363625360977
C            1.38780745678237        0.99315874113134        0.52722936794029
N            1.21596312575956        2.04831358039023        1.34601020080615
H            4.37806079228462       -0.73995543140870       -1.40290207403150
H            3.35366541187369       -2.03607166602240       -1.87457492845099
H            1.48600851665165       -2.84893663924437       -1.61970233349654
H           -0.72383415165861       -4.64107445126013        1.42053956567689
H           -2.17768145080631       -3.79892001011439        1.85504022661928
H           -3.78694380033243        2.99264494744525       -0.41731598648470
H           -4.84834428590103        1.68230343712141       -0.87064483237656
H            0.29000077891426        2.36174097353594        1.58336077971382
H            1.94610767937759        2.74150543790113        1.37617328549813
