32
 energy: -59.135227905889 gnorm: 0.000773587606 xtb: 6.6.1 (8d0f1dd)
N            4.19482023408110        1.86860054545851        1.04871155646077
C            3.10181335855691        1.71680522077243        0.72862852240723
C            1.74678944036948        1.58219240068763        0.40727229110459
C            0.83046611399067        2.64820047946527        0.41632493884924
C           -0.42927328746584        2.16577355072789        0.09079524119107
C           -1.58386005914410        2.94619496195235        0.16967719281289
N           -2.51737581942780        3.61621536076417        0.24106548955821
C           -0.36744935641041        0.73538470150808       -0.05208363681321
C           -1.44849749211367       -0.06472246211766       -0.35455409702007
C           -2.66895532864035        0.39075352091052       -1.03057913110074
N           -2.71881040031608        1.41608348792090       -1.91867460980299
C           -3.65888874170974       -0.54098773428445       -0.81425186556511
C           -3.13333160678049       -1.57337450659154       -0.01575744376595
C           -1.78097384359950       -1.36672703818689        0.19887026905889
C           -0.93856242877371       -2.20607187152999        0.99673592866165
N           -1.48288455825024       -2.80997343544079        2.06972697053347
N            0.26541813982667       -2.56883025096196        0.66991232371931
C            1.21503630226290       -2.14843138702299       -0.12769674612313
N            1.88109518851832       -3.10235338502434       -0.80984380067907
C            1.72380653601846       -0.81161844538602       -0.17540649658222
C            3.05212239892055       -0.71060720677695       -0.62813164350096
N            4.11363220778975       -0.71297097258481       -1.07218275633893
C            1.05918825633543        0.38080925114588        0.15111272805991
H            1.06512319790629        3.66726986367791        0.66598112901814
H           -3.63348027310655        1.72420353331122       -2.20475435154542
H           -2.01319477613050        2.13265610704062       -1.87971807950168
H           -4.66170891245618       -0.49248904988670       -1.19245863224819
H           -3.69248823618411       -2.42627709406068        0.32679107519898
H           -0.93554270025316       -3.45650296128924        2.61024339678532
H           -2.42247622161158       -2.59415607304060        2.34735271473724
H            2.75749134408988       -2.88430129622618       -1.25509236490800
H            1.62513819230823       -4.06465699743484       -0.67129641666137
