36
 energy: -66.818288281100 gnorm: 0.000770286919 xtb: 6.6.1 (8d0f1dd)
N            0.23869699070670        5.43543073660943       -0.41648418395825
C            0.30481234713949        4.30412184716209       -0.21538728027065
C            0.36452010663723        2.91127488545736        0.00852696662768
C           -0.84689114142739        2.28593450593125       -0.31426757718956
C           -1.40492823692062        1.04218816609470       -0.15479324752859
C           -2.81391750985725        0.88112357718073       -0.30470177982306
N           -3.72380202367568        1.81409019332492       -0.65821509412147
C           -3.16945517676341       -0.41963243725201        0.10721654812076
C           -4.47194844322121       -0.90893418770477        0.19422439174802
N           -5.55072734053249       -1.30317735607732        0.25798553783845
C           -1.99708504477033       -1.13802020618902        0.41801057651852
N           -2.02377595750929       -2.33859881414405        1.03057882697089
C           -0.86426467805788       -0.29880839108281        0.18175929616001
C            0.42502140784618       -0.78537935188023        0.03657767931540
C            0.72600577646394       -2.14185447356040       -0.26765884794962
C           -0.10859040052208       -3.12598478996611       -0.78475465012352
N           -0.73323776384587       -3.98888666830911       -1.22608358376643
C            2.12417415362582       -2.34974386692885       -0.17796071540390
N            2.76297523985559       -3.50181994952281       -0.41968894750644
C            2.71828476003620       -1.13253898371830        0.21621826128943
C            4.08293049893831       -0.96247802363390        0.42528583924787
N            5.21524345888268       -0.84895360481961        0.60394551125699
C            1.72758717159357       -0.11796721494468        0.28124923545999
C            2.11715995593368        1.15303155562243        0.64569745594430
C            1.58403747243641        2.45100845372718        0.56594631383075
N            2.41357310878611        3.41990463237769        1.02616015995792
H           -1.55772420305165        3.01990421723068       -0.68735655214929
H           -3.44185274230036        2.67394436360898       -1.09435628046944
H           -4.67806307267216        1.52076499291399       -0.78046941540329
H           -1.17633292504463       -2.86052584326770        1.16753237500317
H           -2.88490025767274       -2.85882729691518        1.01447986275164
H            3.76803555493719       -3.53261912505329       -0.39496050714139
H            2.25634137386102       -4.28993867013637       -0.78654316611094
H            3.15200880322014        1.16985724023772        0.98185787702396
H            2.16579810135253        4.39065458096725        0.92743138371513
H            3.34344201028987        3.18910237576899        1.32994086503427
