24
 energy: -43.771192813176 gnorm: 0.000777266124 xtb: 6.6.1 (8d0f1dd)
N           -4.05061149381767        1.35039849833090        0.11751743384779
C           -3.20984555681018        0.56834795586509        0.05387232603362
C           -2.23077685744459       -0.42117313516670       -0.02510931069592
C           -2.47624224834486       -1.74245553562603       -0.44679239166812
N           -1.40176446043642       -2.52111011859645       -0.44144779762504
C           -0.39031542484140       -1.77391887003896        0.01937951739588
N            0.67909321408907       -2.30926025680499        0.50484319803716
C            1.85067571981307       -1.87600976997295        0.86319990978883
N            2.61261253514562       -1.04402610237864        0.21636926259237
C            2.35585145428940        0.05702849771917       -0.44106020940172
N            3.21867137716494        0.40774023649506       -1.40728623479091
C            1.35761507285925        1.01720865678121       -0.05253329983684
C            1.57730097744686        2.37844250424835       -0.04889933019623
C            0.38258923841109        3.04496572998802        0.32342479238744
C           -0.60568914879137        2.11530500653287        0.48196455397109
C           -0.06073004851966        0.80949786030424        0.28193774423490
C           -0.83504970754628       -0.32930386583167        0.17969979732394
H           -3.42792291239725       -2.13391050858130       -0.76242675733501
H            2.32690880078868       -2.42677857132862        1.67006038495281
H            3.99435599614317       -0.19699963237112       -1.61882436857613
H            3.15759735887432        1.31197299402227       -1.83970519849549
H            2.51620609061854        2.86576952906352       -0.24417395359419
H            0.28313447560717        4.10790330754042        0.44243620802734
H           -1.62848437810232        2.30662705090688        0.74116171622239
