31
 energy: -55.416142883470 gnorm: 0.000292585250 xtb: 6.6.1 (8d0f1dd)
N            5.33906903509966        0.39226685835849       -0.61697533615860
C            4.21315979201050        0.28945791679919       -0.41220572762830
C            2.82300557307129        0.14173087061215       -0.17383851332934
C            2.44627842055743       -1.20010637242078       -0.19168696073111
C            1.29589771327139       -1.93667100456321        0.00831644331844
C            1.41185436250018       -3.34070345547324        0.10119988915070
C            0.16452445243424       -3.89696413214128        0.32755504691408
C           -0.77884532966682       -2.87512506332223        0.32969959405904
C           -0.14607937232728       -1.63684803841834        0.12959400340030
C           -0.87057905447730       -0.44947654569697        0.00140839960487
C           -2.27159509976323       -0.42264361484703       -0.13745328005679
C           -3.19243937571189       -1.44550584056144       -0.36371724516141
N           -4.05881136963002       -2.17363035483016       -0.57815868872002
C           -2.73819924613106        0.92375812780389       -0.08750753902259
N           -4.01524543548909        1.30457354275566       -0.19515986018062
C           -1.62096692038379        1.75511631022580        0.09061744880903
C           -1.68249398344822        3.14263643158977        0.18982233379691
N           -1.75178081904600        4.28871250730068        0.27681307483328
C           -0.43575329410292        0.96471714365592        0.09848679520742
C            0.76547398509869        1.62818586052381        0.21279633758470
C            2.13873965472017        1.35495343239526        0.09062332685509
N            2.92907709845397        2.45145256913492        0.22246745941092
H            3.30718262991531       -1.84575401630674       -0.35687724175917
H            2.34068228925840       -3.87762136468929        0.03744661320214
H           -0.04630539773699       -4.93997644759981        0.47581771259380
H           -1.82970674078319       -3.01666499274649        0.48917827442399
H           -4.25992079949827        2.27934013922325       -0.16183449568186
H           -4.73218578155848        0.61588501023931       -0.35188711531815
H            0.60108282806195        2.69372395441775        0.36821589462606
H            3.92607219779361        2.38195107509562        0.10538144866107
H            2.52154995000773        3.36081069298547        0.35122237049609
