32
 energy: -54.320443400564 gnorm: 0.000971630306 xtb: 6.6.1 (8d0f1dd)
N           -2.85002495152571        2.40586053127958       -1.27158465513881
C           -1.99487865790604        1.90209142454880       -0.68815268061985
C           -0.85358794118128        1.34241701489379       -0.07104872702155
C            0.06339613618503        2.28840663141428        0.41232449675212
N           -0.32707182835213        3.59007790660239        0.35042173869828
C            1.32658397822253        2.10477966974262        1.03463192727166
C            2.30512467040025        1.16225144221822        0.91102404205091
C            2.44844543263488       -0.04180917000662        0.20351215282050
C            3.71974561495859       -0.58367186216989       -0.04090570665715
N            4.93650542047923       -0.02971788034297        0.26156373053202
C            3.57367798421239       -1.85723193468433       -0.65106348383454
C            2.24200902266205       -2.14655142467722       -0.73765122514381
C            1.47696139502755       -1.04974419228681       -0.23377563261192
C            0.10546579973168       -1.13498572686721       -0.08945709493733
C           -0.58963616169178       -2.36599359873134       -0.14905142761377
C           -1.94145219690281       -2.14587222848716       -0.01287110677194
N           -2.94258906300894       -3.04411371432181        0.03546910570512
C           -2.15303396714509       -0.71611100924292        0.07103342371942
C           -3.42597101031388       -0.18628892439732        0.27112498470841
N           -4.51162790642476        0.12569201844313        0.49573751746060
C           -0.92271376401181       -0.07312650287919        0.04167270678645
H            0.28347622001298        4.31907277332067        0.67087748848848
H           -1.21911171608966        3.83677187485707       -0.04342511146424
H            1.61838170366123        2.97378632011595        1.61680473996240
H            3.21828082760014        1.43944018609484        1.43193484696477
H            5.73379239935428       -0.43831001187038       -0.19636454298532
H            4.98270785072610        0.96718120109533        0.38671372502443
H            4.38969127016033       -2.47475999038587       -0.98143472433645
H            1.82429925308749       -3.03397185748828       -1.17171119892275
H           -0.13054382908325       -3.33302907244035       -0.20655566408450
H           -3.88118228830831       -2.72941983827688        0.21147087321940
H           -2.74356552737130       -4.02798394167018        0.04437114117910
