26
 energy: -47.208653627732 gnorm: 0.000629568439 xtb: 6.6.1 (8d0f1dd)
N           -2.52655452536228       -3.06072233706840       -0.38609752630444
C           -2.12993797660910       -1.98491563751123       -0.26857842549569
C           -1.82151847137390       -0.63929884811400       -0.11593269535071
C           -2.86886022508276        0.32227072257744        0.14161695138172
N           -4.16364597461815        0.02125796314928        0.25550422801940
N           -2.39963798847431        1.55232312158562        0.25506141360089
C           -1.05756473130811        1.49640025716154        0.05829114687844
C           -0.42479502165119        2.69596100633678       -0.13591471946466
C            0.89555244814059        2.96291783661839       -0.56392601734291
N            2.00103959461793        2.40331215366938       -0.25462942930035
C            2.44259748701989        1.29603379615470        0.29074898491002
C            1.99106266672727        0.01625955145855        0.08782109242447
C            2.81512283393364       -1.15500568104391        0.16995839681028
N            4.13840860203545       -1.20763677620261        0.44045563188948
N            2.12405973240920       -2.26815364299674       -0.07748902345865
C            0.85459252552572       -1.89956307595226       -0.27947801984494
C            0.65184223783488       -0.51343490774378       -0.21600890351925
C           -0.62009130967693        0.06989430715753       -0.12597587524930
H           -4.47153826500778       -0.93066800696676        0.15503858622503
H           -4.82331823967062        0.75269811692865        0.45302454837836
H           -1.09796138015561        3.54394003727599       -0.12925577105897
H            1.01309409885581        3.83882777078558       -1.20097531855547
H            3.39238665937734        1.42943193202460        0.80524224063864
H            4.59085148218105       -2.08880979042681        0.26571937970101
H            4.69686039252936       -0.37448076311428        0.39484648701796
H            0.11207022330220       -2.65354097034208       -0.45939285263244
