31
 energy: -54.597705328040 gnorm: 0.000354685469 xtb: 6.6.1 (8d0f1dd)
N           -4.59374856862267        0.12792821944961       -0.94867809948232
C           -3.59228699543354        0.60729170165650       -0.64022969354749
C           -2.40216667338054        1.22460116845024       -0.26843164198122
C           -2.18617219432735        2.61421474867783       -0.32947779419129
N           -0.95074758762844        2.95238565024355       -0.01955394575370
C           -0.24506301691324        1.81068441748478        0.16945078194499
C            1.03536275525426        1.94972526868525        0.64355807243249
C            2.17936102396505        1.12840900691130        0.69010372293090
N            3.22686371361231        1.66868471722334        1.36451896640962
C            2.43646862567855       -0.07099520831547       -0.00856762560835
C            3.80887362922767       -0.32107051807082       -0.20505334054353
N            4.93213249023049       -0.51871913080466       -0.37074154971728
C            1.59306703917048       -1.11052413916809       -0.50604180831436
N            2.19000548159722       -1.97557927654495       -1.35902891146990
C            0.30509011325695       -1.47449999636392       -0.06752587154015
C           -0.07600633174662       -2.81969801074435        0.00478819251233
C           -1.36076418519966       -2.92909232306883        0.52994227922099
C           -1.88305313519510       -1.65298080508842        0.70201325624187
N           -3.05064045703601       -1.38053430301785        1.34909459313707
C           -0.88738775324893       -0.69570851560870        0.30113036057933
C           -1.14457342746341        0.63685758216738        0.02756376572636
H           -2.91407776941594        3.35811449819994       -0.60249487659903
H            1.22722933982155        2.96927996450257        0.96439705112523
H            3.16173134854354        2.60937854839008        1.71216567345980
H            4.13455168030459        1.23532648347183        1.33037997373062
H            3.17590764615932       -1.91400213826788       -1.55278453842667
H            1.68330468292044       -2.78143250263560       -1.67848026474103
H            0.55956054189677       -3.66477330902737       -0.19436107650688
H           -1.86505575936851       -3.84648048825526        0.76922349043796
H           -3.44283371473406       -0.45751376407763        1.26832535052463
H           -3.72825942952541       -2.12453751625505        1.37772337130993
