32
 energy: -53.530060614471 gnorm: 0.000749441879 xtb: 6.6.1 (8d0f1dd)
N           -4.89482111493812       -1.31062703199955        0.82006082157854
C           -3.88494789376450       -0.81326606535806        0.56983813344636
C           -2.70378322612502       -0.15757761053702        0.25996101233257
C           -1.40239089568802       -0.68505401896261        0.13858847021400
C           -1.17529061158019       -2.04165642732135        0.28884223781073
C           -0.10173893925156       -2.87085370815462       -0.01063284471716
C            1.20836435583021       -2.68393695959039       -0.38306581098582
C            2.11706005851574       -1.60281706166675       -0.36608375666542
N            3.40463235731857       -1.99776984905328       -0.64576765018959
C            1.96105217271429       -0.24759051253644       -0.03144119316587
C            3.06587198034070        0.58430269594498        0.25245024497297
N            4.35845138917764        0.19294343551598        0.56868993295906
C            2.69277763641166        1.93195236223714        0.16866693884515
C            1.35679402786867        2.00909375892932       -0.18015944182352
N            0.66250420370501        3.13682219420952       -0.44015196097704
C            0.80208270446450        0.67030461867816       -0.19859876768494
C           -0.55882816444986        0.49006280893202       -0.19963450880433
N           -1.37341668756559        1.58404810417286       -0.36222529609642
C           -2.61533103245416        1.22260561201378       -0.08081697792380
N           -3.64420882526251        2.09035400154336       -0.09008249139986
H           -2.07005122769795       -2.57953231860341        0.58834023945097
H           -0.37628195352848       -3.92139241576229        0.02417798009046
H            1.69948913985716       -3.61281984153285       -0.66109117495101
H            4.06203496200627       -1.29354506754754       -0.93697867073870
H            3.53313366948413       -2.91769818506787       -1.03281327972210
H            4.42747059028321       -0.67972229397585        1.07257921349484
H            4.89922916887772        0.93264460764956        0.99435285702001
H            3.34742682714666        2.76710363505051        0.34251440257163
H           -0.34768974771431        2.97522698634235       -0.47001376773691
H            1.03613326503743        4.00769576236036       -0.10092286091524
H           -4.57945407925980        1.73635458277336        0.00957143090069
H           -3.50622316265366        3.00783433831852       -0.47438120029143
