31
 energy: -58.644099620834 gnorm: 0.000729726671 xtb: 6.6.1 (8d0f1dd)
N            2.98321906136537       -4.02875715294271       -0.64731738067599
C            2.35885564959574       -3.09180836536647       -0.40415791167981
C            1.58617450807136       -1.95779896955530       -0.11021112785944
C            2.20059297751758       -0.73686797498496       -0.28855789084049
C            1.83149706748877        0.58454222914025       -0.03488513231787
C            2.78848361384250        1.63755601188334       -0.09152989737029
N            4.11254876971652        1.53703232656273       -0.27035707885581
N            2.25180395185677        2.87079121938418        0.07568178319455
C            0.94945670533431        2.69052561176309        0.20900817809291
N            0.06879740421608        3.66397331043914        0.37704072414520
C            0.57013435131971        1.26947294046678        0.18178186947573
C           -0.74008298277760        0.89272773645921        0.20886124049944
N           -1.75695265611311        1.81811946951377        0.11408960544446
C           -2.84992365081850        1.15778175227300       -0.21340656414626
N           -4.02491981556437        1.75422747179514       -0.45633710705442
C           -2.63861859547781       -0.26958532115319       -0.27783618116542
C           -3.63209254014924       -1.19520906368329       -0.56675167529841
N           -4.49790456096719       -1.91173477447886       -0.81825073423992
C           -1.31097818823465       -0.47542681731376        0.08679516113355
N           -0.80960904470104       -1.63265687360429        0.43670975387534
C            0.31990446586605       -2.23564678779497        0.55771759246286
N            0.32642670223835       -3.31900995328978        1.36955594727112
H            3.21836290037746       -0.83660003335037       -0.65931364082909
H            4.65160454956881        2.38381531368549       -0.27510772668031
H            4.57082386934492        0.65103254019546       -0.37523234166863
H           -0.90916592563206        3.35783875129561        0.35507372060281
H            0.37010192928384        4.62204751401911        0.34244183135555
H           -4.82722157380103        1.19689478435444       -0.69043535242288
H           -4.12102992607932        2.74537730619101       -0.32971142257281
H            1.09948255034253       -3.96233119650965        1.34175435729536
H           -0.54837272023540       -3.62388548688788        1.76182770662410
