28
 energy: -52.247026423266 gnorm: 0.000519420343 xtb: 6.6.1 (8d0f1dd)
N            5.58458668484363        0.00987713969314       -0.73920864181498
C            4.47983295697735        0.19398548005124       -0.48780520510070
C            3.13559115904918        0.44222447009609       -0.18094905093054
C            2.65222241328815        1.60038896204310        0.48160066835012
C            1.27391952289502        1.53072806919796        0.53808373938585
C            0.46471137338568        2.51246584737253        1.15598990346872
N           -0.66813692413547        2.94228937545261        0.74823939132721
C           -1.65414315072619        2.60211695168520       -0.02561419999898
C           -2.27510391666180        1.35869155613007       -0.13849749199096
C           -3.60755329434054        1.40549926566816       -0.61150470217683
N           -4.68279324805393        1.45631274543983       -1.00929334170978
C           -1.76751057518270        0.06278522413498        0.11893509675017
C           -2.59763187090144       -1.03955070396728        0.16856296279545
C           -1.82034790846081       -2.21655606985798        0.14723060641322
N           -2.26901999934296       -3.47061740233842        0.22001367021254
C           -0.45315003073224       -1.83904298321489        0.04258971734436
C            0.54856311718433       -2.81084414119673        0.05201337906422
N            1.27607608479736       -3.70206270472425        0.07746570421985
C           -0.35423052941732       -0.43454466276505        0.05703173784100
C            0.86497902004739        0.23901335635072       -0.03177031976573
C            2.06129858370487       -0.39366305510761       -0.44831743857952
H            3.25952784321809        2.41231556284767        0.83589505876319
H            0.89987048570485        3.07926190404447        1.97534709751314
H           -2.15536432604009        3.44732836851542       -0.49065598524081
H           -3.67039171106894       -1.01138619977811        0.20579774444542
H           -3.25271150147381       -3.65925893807240        0.30592940793220
H           -1.61918121256340       -4.23970212455829        0.19426068638745
H            2.12797147740541       -1.34743298844260       -0.93442566630539
