29
 energy: -49.578257618559 gnorm: 0.000885387330 xtb: 6.6.1 (8d0f1dd)
N           -4.44214020043639       -0.43477326555148       -0.46747692557395
C           -3.10275562647015       -0.42759134783708       -0.29984418815079
C           -2.28153640776073        0.71921673162425       -0.20120534408445
C           -0.98096012700801        0.26886880334964       -0.05564403574814
C            0.15161522752855        1.07515951920699        0.09719217210129
C            0.12193252772481        2.47036662453152        0.39987341079903
N           -0.96675859125482        3.21143777032682        0.79917570956176
N            1.32026660724163        3.04477693040604        0.28278558242181
C            2.15504080194256        2.09037947904713       -0.15522912955171
C            1.54122841657616        0.84366836215879       -0.25084202921971
C            2.18724785370749       -0.34278916479912       -0.67951939165925
N            3.14725237414546       -0.22162879243749       -1.62486057210000
N            2.07276348400585       -1.53155925078696       -0.14411713263742
C            1.16837026073049       -2.21035731661668        0.50716513030727
N            1.66670588794997       -3.16475724714559        1.33325426818600
C           -0.24038575290019       -2.22042279050279        0.32818475047546
C           -1.12113310763681       -1.22765261313133       -0.01075728957323
N           -2.41950972029165       -1.56807281000281       -0.16160349128359
H           -4.90208126423868        0.40757688145839       -0.76428537346054
H           -4.87486485469481       -1.31759433123079       -0.67722120915904
H           -2.61216287018539        1.72910038756449       -0.33812148361276
H           -1.64716321095074        2.70641410430217        1.34838199492607
H           -0.69421240981740        4.10088633179465        1.19248084577727
H            3.19625231886556        2.32047745665644       -0.30526589364020
H            3.74339095441927       -1.00538695321783       -1.82477939667818
H            3.40602289942505        0.69537661704112       -1.94060437727547
H            1.05625781746580       -3.82332437858880        1.78003682366004
H            2.66130649274875       -3.25575021353289        1.43595295151644
H           -0.72034369873131       -3.16953706918726        0.53557472077574
