28
 energy: -51.446872769730 gnorm: 0.000912357307 xtb: 6.6.1 (8d0f1dd)
N            4.74676520854687       -1.69130597404105       -0.43332604296388
C            3.63808322931432       -1.45486386612956       -0.25781338685090
C            2.25532615605264       -1.23003942654373       -0.06252188307450
C            1.43200433505566       -2.35518915392304       -0.26788306513542
N            0.29103354264132       -2.63191725866285        0.25095095268558
C           -0.78270528461629       -2.08364548121792        0.72667049833429
C           -1.38419240910217       -0.90045801753728        0.32184464747003
C           -2.78423445909622       -0.69445472153123        0.32242176549008
N           -3.74816086491570       -1.57184201610737        0.70075668606684
C           -3.03353936022086        0.60877999022834       -0.17046606005235
C           -4.30502245492723        1.14986619529674       -0.36442627248899
N           -5.36856636356458        1.55776150287911       -0.52490007797092
C           -1.80431351640398        1.23911467172243       -0.39931283462372
C           -0.75586028930954        0.35825561674035       -0.11380692880334
C            0.56833848750530        0.80859007701819        0.03661618104789
C            0.92421782072998        2.14815760786451        0.07626143563095
C            2.31438238995485        2.20757943040996        0.30427914274950
N            3.06833901996310        3.29588056505718        0.47496810191938
N            2.86892664871649        0.97804220000872        0.35763391180108
C            1.88936154800013        0.09591038807314        0.18708700578112
H            1.86988806421358       -3.17438793332975       -0.83528826731309
H           -1.34318093494396       -2.74275568262463        1.38766781565416
H           -4.69983692201055       -1.35968468913989        0.45266074666275
H           -3.51464842012127       -2.53706898051139        0.84833869540979
H           -1.70270063976511        2.24742223607179       -0.75182335678659
H            0.27618332599130        2.99877954385241        0.01938054449984
H            2.67515609471750        4.21740433528126        0.41241505191117
H            4.05195100229450        3.17413034549541        0.64301814254883
