32
 energy: -58.359668152522 gnorm: 0.000963439792 xtb: 6.6.1 (8d0f1dd)
N           -4.33231824962460        2.83163919236079        0.74747977714429
C           -3.40720801112384        2.17909044622669        0.54189996735229
C           -2.34206884818657        1.31592837834847        0.28423985636769
C           -0.99464376165721        1.53024210226429        0.48809418344372
C           -0.27929523854731        0.34447342115183        0.16920196589938
C            1.11204405481930        0.29785332908751        0.14549490241185
C            1.96641946090110        1.40860711874497        0.06998830561670
C            1.67824353118886        2.76794955189879        0.04581972834322
N            1.55659747826405        3.91441951254852        0.01362665334161
C            3.30864933424609        0.94267920388483       -0.12061565583458
N            4.35947140500997        1.75575892451299       -0.29166196026640
C            3.31692908839525       -0.45419211450058       -0.09779802158432
C            2.02068532921225       -0.90394104268729        0.12141803474218
N            1.74844484239236       -2.12745623216909        0.50169238312857
C            0.64425957866548       -2.82885299824004        0.53963133117556
N            0.56983434710574       -3.78181556693852        1.50008385459300
N           -0.29675207378890       -2.87198187615106       -0.40068057679505
C           -1.05335593016916       -1.92662281271838       -0.86760208010541
N           -1.85588541572967       -2.27157832624669       -1.90597700677571
C           -1.26808192258691       -0.62684314492145       -0.28746147410508
C           -2.51211035560401       -0.00946879733199       -0.24499104411929
N           -3.73016954890073       -0.50953377275004       -0.64311756871381
H           -0.55765859316864        2.42960809368478        0.87581287210097
H            5.27449998889293        1.38177996539951       -0.46857921383677
H            4.22567911464060        2.75301529550923       -0.27862019320646
H            4.18389470671863       -1.08045621712533       -0.17205322128767
H            1.38629025742087       -3.95468055460401        2.06029650714388
H           -0.11891123954390       -4.50704700770718        1.40472832967478
H           -1.66266128776464       -3.14227517720018       -2.37123006098216
H           -2.33641428673712       -1.54869208998223       -2.41223905641038
H           -3.82877735293317       -1.51326004416193       -0.62733033897927
H           -4.52755528630486       -0.00624705488892       -0.28140513007660
