29
 energy: -55.980282752987 gnorm: 0.000887587637 xtb: 6.6.1 (8d0f1dd)
N            5.26798169388031        1.69523687146440        0.07853107068760
C            4.23780137995833        1.18684788649636        0.09082304191861
C            3.01690493682815        0.50512396486111        0.07633896465886
C            1.76668202567823        0.99263193985243        0.40200876571945
C            0.79824487373228       -0.03704795944377        0.27466017251545
C           -0.56288333606945        0.23638671288875        0.28677015526967
C           -1.15450423074328        1.51888041532601        0.20464821610185
C           -0.58940216154217        2.78623137251526        0.32590164488394
N           -0.23041146364705        3.87719983081878        0.41303733216219
C           -2.52382959314967        1.37685953451281       -0.14083098848631
N           -3.37265951906037        2.37748034420819       -0.37482784799873
C           -2.84290475625505       -0.00807947304613       -0.20454743257766
C           -4.11200247944797       -0.50689952987487       -0.49505584588227
N           -5.17277415642608       -0.86184152457822       -0.76136189855560
C           -1.70334938568968       -0.73733923453109        0.15792462905139
N           -1.73905402914244       -1.96538813263893        0.58780019547560
C           -0.86657246357320       -2.90079901426090        0.76703310896107
N            0.13703970920502       -3.22965491568768       -0.00930982719688
C            1.08708610385230       -2.52224703374749       -0.52576771247523
C            1.53350378941811       -1.23974560634383       -0.16990270465616
C            2.87959717228202       -0.86321940213742       -0.32461856997503
N            3.92232679313441       -1.63679690242365       -0.68790268315897
H            1.56128824653319        1.99836424046293        0.71283282584258
H           -4.32177038515714        2.18324189723055       -0.64781754378434
H           -3.07015255534737        3.33213688943829       -0.26893290311500
H           -1.11747559306762       -3.63184863457511        1.53294954998623
H            1.70465498720470       -3.07678542033999       -1.23029273882562
H            3.77688858369499       -2.55983917988123       -1.05586567027198
H            4.82616373521973       -1.21043618296726       -0.80117021717248
