28
 energy: -51.442941092623 gnorm: 0.000660465412 xtb: 6.6.1 (8d0f1dd)
N           -4.92500704439466        0.59504850048637        1.23674462843599
C           -3.86196015618525        0.56645752410785        0.80708859537541
C           -2.53297355415325        0.58814867497270        0.32004627432343
C           -1.84040131284425        1.77679854435544        0.54617921054714
N           -0.79225884125944        2.24398092137709       -0.06350107047473
C            0.32227415126738        1.84717853601743       -0.58351376609566
N            0.92972411547630        2.69733290236406       -1.44495269913344
C            1.06207071275686        0.68857615327358       -0.16168981845907
C            2.43105350246103        0.64310455105962        0.03821465102702
N            3.33766766299309        1.66475495365557       -0.02902452593628
C            2.79564802236688       -0.73002202122476        0.30880744327195
C            4.09967584591598       -1.13398266297657        0.60643570505105
N            5.18651407815972       -1.40942000269951        0.85904954864249
C            1.66872558493608       -1.50962004753907        0.20316167230982
C            0.54542958059324       -0.67091413087198       -0.07610993715546
C           -0.70506114686505       -1.18455713812814       -0.37571428170416
C           -0.94664834977286       -2.53178560312435       -0.72678093457399
C           -2.30175673427530       -2.65838126322606       -0.92576924438964
N           -2.97685622154467       -1.52857610264388       -0.61205645762670
C           -2.09226901306847       -0.60502532219544       -0.29401629272346
H           -2.31809911883248        2.49963196074032        1.20365635124089
H            0.39968648025421        3.47333667481979       -1.80518189109774
H            1.74095473368127        2.38888278255610       -1.95148841145961
H            4.23575271078981        1.48364999090275        0.39340344767586
H            2.98585621179020        2.60089722120537        0.09604537362953
H            1.62361303224863       -2.56911508175848        0.36332086414297
H           -0.20368754699729       -3.28043825834343       -0.91586226378732
H           -2.83977627889656       -3.51522638356205       -1.28932230965665
