30
 energy: -54.124994072432 gnorm: 0.000545064433 xtb: 6.6.1 (8d0f1dd)
N            4.52253175431368       -1.29670359227924        0.88587217562174
C            3.53503746243336       -0.76447940793948        0.62351393670948
C            2.38557156927827       -0.04875568806296        0.32231970944545
C            2.33653618373367        1.37027757763111        0.15493574280241
N            3.38135826412347        2.19442903968017        0.31106781149262
N            1.12766952677140        1.81380836817460       -0.17879789497217
C            0.28568821646587        0.74137170309167       -0.17072681235425
C           -1.07691701594786        0.89488321309244       -0.20399075255936
C           -1.69252663665821        2.19900430721119       -0.43125448775498
N           -0.98967716960471        3.27211956592517       -0.85686383574899
C           -3.05003132951963        2.09000659640836       -0.21768630724785
C           -3.32368214025947        0.77804065471355        0.19832800892963
C           -2.16795658242543        0.00923053379794        0.19364204355048
C           -2.13527424906596       -1.34219828086471        0.66400327474165
N           -3.05829501729093       -1.68782852498625        1.59085831315489
N           -1.42808141425160       -2.33613073805122        0.19961266022328
C           -0.32695456035670       -2.36114164943589       -0.53062546037322
N           -0.27387685727982       -3.31148102930932       -1.49775952569791
N            0.80740662481683       -1.74069096198276       -0.28724514302789
C            1.09851471821478       -0.50975284893465        0.02030873906113
H            4.27966950522787        1.81835565591220        0.55680897402863
H            3.27840644881872        3.17443265206560        0.11970940065514
H           -1.42241007035825        4.17817957493094       -0.80287695367744
H            0.01532744049050        3.17871739368849       -0.72849630369035
H           -3.77474586353043        2.87420720474441       -0.33476653355675
H           -4.30907922377884        0.41687111805976        0.43872055871102
H           -3.65456738969316       -0.99550755263250        2.00330669692357
H           -3.09426323364220       -2.64062822777268        1.90595735828313
H            0.63077080908098       -3.55731548324701       -1.86120232300880
H           -1.01084053220529       -3.99365262803051       -1.53170142946400
