32
 energy: -59.124312199779 gnorm: 0.000911673235 xtb: 6.6.1 (8d0f1dd)
N            3.20309516032742        3.20973543244241        1.33332706000787
C            2.58840278586739        2.34642397118713        0.88428246914612
C            1.84146392102432        1.27488075439707        0.35252213156141
C            2.41714060768851        0.01132172453967        0.52896519526947
N            3.53288980570012       -0.07181805605740        1.28331396445528
C            2.03621312121234       -1.20878995440925       -0.10976715072607
C            2.95559827002303       -2.16343251510726       -0.53208216996606
N            2.35779319831782       -3.28643072044550       -0.98689174496502
C            1.07120230106489       -3.14245081597086       -0.77223087044035
C            0.75083075494684       -1.85029980143969       -0.25534927382757
C           -0.53571921347756       -1.44944469051837        0.08300353283477
C           -1.57392723320088       -2.32883753469839        0.38369995649204
C           -2.74683669584261       -1.60466709583408        0.59270929957675
N           -3.94344384160834       -2.06609631392411        0.96742341263590
C           -2.46530633351099       -0.21300135044718        0.34301351860570
C           -3.43813049566657        0.77326047779307        0.50544045091285
N           -4.29730925314825        1.50909946916084        0.71600437133881
C           -1.11489555535060       -0.07825468607856        0.03685403617181
C           -0.57263088782997        1.11818746629597       -0.48421774583925
C           -1.54245508786986        1.92094449624094       -1.13405655617609
N           -2.28241799438800        2.56275624105557       -1.73519217523576
C            0.70466225411782        1.70610375175281       -0.40854685260053
N            0.85161181455422        2.91547083623681       -0.99954957805111
H            4.01224414054829       -0.95249105390655        1.35333041919194
H            3.96188544821014        0.75420877351470        1.66768163489369
H            4.02478183289292       -2.06397621934209       -0.60053293297294
H            0.36946293435710       -3.90164089207141       -1.06206003698237
H           -1.47301554397566       -3.39066577431915        0.49591222558898
H           -4.71070797105853       -1.42580360738929        1.08964722661907
H           -4.09048298713863       -3.04812007840690        1.12200283268324
H            1.69519217361395        3.44619190568965       -0.85835313778015
H            0.05330680699885        3.38115726625897       -1.40090501082297
