27
 energy: -46.909589783249 gnorm: 0.000906836225 xtb: 6.6.1 (8d0f1dd)
N            3.37625526812414       -2.95870516805989        0.21019007590921
C            2.43846319614367       -2.30773367158504        0.06315910714484
C            1.31207872885428       -1.48578458247856       -0.11130305625704
C            0.25092292297447       -2.06063977855673       -0.86420368561001
N           -1.00101569542703       -1.94450325821852       -0.65469586991061
C           -1.85985947331778       -1.18392994263911       -0.03468256655340
N           -2.99691454396545       -1.64903644541488        0.44820304795684
C           -3.78812405158735       -0.56683596516875        0.66503442509448
C           -3.20170455221843        0.63054805362868        0.32436317322320
C           -1.87197684844794        0.32587638019071       -0.04000053308368
C           -0.80546820259502        1.18223933483607       -0.15422212140403
C           -0.99619741245712        2.59736448269895       -0.31511592613591
C            0.21391883140153        3.20990467310407       -0.36148928248936
C            1.22962377366525        2.22788173255230       -0.14113283636032
N            2.56711486414655        2.55476043734689       -0.08508402685745
C            0.63652472668717        0.96925815340663       -0.01476336682070
C            1.39799887569810       -0.17898804570519        0.39512657668688
N            2.45300058147319        0.09018913494215        1.19985605974918
H            0.52267090135635       -2.80309459888229       -1.61175974729129
H           -4.77324198967308       -0.71588879888926        1.07142400789504
H           -3.64177687120154        1.60350077549039        0.40968728705655
H           -1.95436000734623        3.05838007256449       -0.45385377270501
H            0.40924650549967        4.25253875845212       -0.53448331565049
H            3.22026404489185        1.82876032191326       -0.34075575580741
H            2.78935853327161        3.45493627456719       -0.48295563720708
H            2.56203606844644        1.00492106257908        1.59928708847286
H            3.05902241880564       -0.65601914707892        1.49873776775847
