33
 energy: -58.052641801017 gnorm: 0.000586124169 xtb: 6.6.1 (8d0f1dd)
N           -4.39913000927048        2.18566602536792        0.66200367958975
C           -3.56089852885371        1.41658294067076        0.47604080967774
C           -2.56100921379441        0.47757077175867        0.25286948493262
C           -1.16031486526920        0.74966010205612        0.17481864801714
C           -0.72192174239754        2.03677215650467        0.33177429854001
C            0.46723292092742        2.74848259895979        0.03485887109436
N            0.32336580060345        4.09854518488979        0.18821922576757
C            1.70422804420480        2.34527095822791       -0.44856847940900
C            2.42648447173555        1.14467710259503       -0.50026101588027
N            3.68224822731888        1.27734734556536       -1.00488268040510
C            2.11092518493754       -0.14553283326577       -0.02041425556759
C            3.09427124281122       -1.11567874656071        0.27153542726613
N            4.47476911633434       -0.96987566139261        0.31276308490496
N            2.56382720331463       -2.31900943600298        0.55936577881743
C            1.25740181317089       -2.20365076091151        0.40682985294669
C            0.85501555411720       -0.88445130780221        0.08474309394981
C           -0.49054614302861       -0.55037661469338       -0.04961147965488
C           -1.51143329483227       -1.50507482749250       -0.20547126516153
C           -1.43845441364614       -2.85494706354274       -0.54116526984692
N           -1.51844094595835       -3.96328732676536       -0.84663938343897
C           -2.78146667455511       -0.87946177319206       -0.02273480944305
N           -3.96449544117029       -1.50238773134925       -0.10593620854631
H           -1.52776604863780        2.70540403514850        0.62707030344094
H            1.05236588280461        4.72310878896921       -0.10673681536261
H           -0.58360034813111        4.49101095658710        0.36844346994725
H            2.30479202202736        3.18774166521390       -0.78569405191341
H            4.21692950876275        0.44673706197445       -1.20078872812101
H            3.95979507639029        2.14155122362465       -1.43588547294705
H            4.79683395419780       -0.14172426537605        0.79709069936426
H            4.89549377447167       -1.81237903682137        0.68475883748666
H            0.61638464497769       -3.04063321795979        0.60580126572428
H           -4.81869655264256       -0.99109150755881        0.03238664608518
H           -3.99896151081859       -2.48007407882629       -0.33983869345601
