30
 energy: -50.872865454249 gnorm: 0.000822838508 xtb: 6.6.1 (8d0f1dd)
N           -3.83313772536673        1.84876258433645        1.52270855256255
C           -2.89645406963744        1.45334365405247        0.99023357380722
C           -1.72244002646796        0.97114481702682        0.35660319085973
C           -0.68661920432194        1.85351408426075        0.35102189086759
C            0.60643940409420        1.80258045743475       -0.25641412121519
C            1.04803239842636        3.07795658502265       -0.67093458073099
N            1.41640733335323        4.10997450554019       -1.01989779059981
C            1.51119600085481        0.76650032335438       -0.41781594480390
N            2.71827694937927        1.06763657756051       -0.99410399229924
C            1.43519870868611       -0.57770956295024        0.10489377764328
C            2.55721252901656       -1.25473167785070        0.56467265073513
N            3.80763241801674       -0.76821335494617        0.80473490344007
C            2.22295694749195       -2.64840193468358        0.75650832290643
C            0.95393227123430       -2.84314019053763        0.35115701238052
C            0.36836785123390       -1.55714894631339       -0.00945184224017
C           -0.95293227285236       -1.45792038417272       -0.34155425305523
C           -1.73948509884519       -2.58967103122784       -0.78456244536498
C           -3.01360876583121       -2.18319776861076       -0.99038789535258
C           -3.12606468032073       -0.80577126129453       -0.59835010481645
C           -1.89654348505380       -0.33225337478617       -0.23791750269908
H           -0.91468687510760        2.82774661354651        0.77650580796998
H            2.81069916981730        1.95928162580199       -1.45543530392483
H            3.27793524652129        0.31033692067005       -1.34627191956214
H            4.40455170154554       -1.32452549720676        1.39450045272659
H            3.91411759692722        0.23080102872379        0.88401798808373
H            2.90411789709352       -3.37931668472870        1.15240940082910
H            0.40226020426703       -3.76117219802043        0.39429256831426
H           -1.33334882343888       -3.55727634746864       -1.00751614030219
H           -3.82565476631816       -2.77434742669979       -1.37256537519217
H           -4.04317336189685       -0.24559187453261       -0.59206378446760
