26
 energy: -47.202035065075 gnorm: 0.000700827090 xtb: 6.6.1 (8d0f1dd)
N            2.65395545377583        2.76888205279909       -0.93486271568668
C            2.41110880300329        1.68779118716147       -0.61693645966854
C            2.15454510770811        0.37979663490394       -0.21853451311769
C            3.11221115741431       -0.61691662794043       -0.14520835171559
N            2.57572411888862       -1.80622645498265        0.18758418340823
C            1.26056881251549       -1.67417760337270        0.22175473306925
C            0.47888555961448       -2.76656432012520        0.70876986537242
C           -0.82962534653548       -3.02265321389966        0.48703225706497
N           -1.61902918814864       -2.54058770225960       -0.49128642738775
C           -1.99282621762990       -1.37914852744655       -0.80920376198312
C           -1.65784988258148       -0.13060261600292       -0.16895131143630
C           -2.50253331157290        0.99110940825204       -0.07669306892207
N           -3.80930003619854        1.05570457347172       -0.35913951550796
N           -1.85984248035318        2.09534714502376        0.40590782657234
C           -0.59473787755641        1.76384134542779        0.51806488115429
N            0.28485746255059        2.56171428783106        1.11626467279448
C           -0.35154063544517        0.34016963974302        0.12503401426808
C            0.88191511388477       -0.27039775353002        0.00057618269215
H            4.16759913822993       -0.52102799303630       -0.32459402875508
H            1.03923581214875       -3.45888951838323        1.32173195016777
H           -1.29567668643085       -3.85177200640024        1.00994406672061
H           -2.64840393496606       -1.31742759490263       -1.67793187885528
H           -4.30736955501692        0.25506418648356       -0.70286299236743
H           -4.28223379022115        1.93344017520692       -0.23748100961390
H            1.27483090082196        2.38958760462754        1.04625487860354
H           -0.02447608759895        3.49299429005036        1.34293198572972
