34
 energy: -57.758499112753 gnorm: 0.000705455138 xtb: 6.6.1 (8d0f1dd)
N           -5.07951672699697       -0.90705312843530        0.29354645657390
C           -4.13689334808708       -0.29615590933393        0.04000144203852
C           -2.99414275852617        0.44644518404275       -0.24726879278541
C           -2.98088645997015        1.72184881055624       -0.90127717210416
C           -1.70172991850848        2.18257355686349       -0.92034598431840
C           -0.83144779245077        1.18858218592251       -0.35302706153455
C            0.49191009846512        1.39706393238354       -0.04211209299004
C            1.03958640761732        2.73894804144125        0.25542150201979
N            0.28997996658026        3.86836954202774        0.35671641588525
C            2.37430911472946        2.61619143193019        0.50530958760094
C            2.73870541629758        1.24807872630127        0.33007575287888
N            4.01829684601606        0.80127032457329        0.42778138124533
C            1.59524863610204        0.48750652204987        0.04839694670431
C            1.66831020087469       -0.87941746088582       -0.41130314735551
N            2.79330124728475       -1.16673655602721       -1.14789273913737
C            0.82982809254609       -1.91952232623159       -0.08036993176556
C            1.16038059828197       -3.18944100134820       -0.58224618275587
N            1.43559542661825       -4.23106990785095       -0.99287645149098
C           -0.33064807132276       -1.94134968347136        0.80616956589045
N           -0.35785652559176       -3.01794216761238        1.65508049241588
C           -1.40318620827486       -1.09756950469711        0.79833171901036
C           -1.68519548931906        0.05859634158602        0.03226110414843
H           -3.85208926552862        2.20535315349441       -1.30531666359077
H           -1.35986204443216        3.07018632532303       -1.42015862599789
H           -0.70773252716417        3.75333119781805        0.44108879527568
H            0.69828417986613        4.64189387830568        0.85548160704431
H            3.04943537738343        3.39823844930407        0.79799716419141
H            4.69117226847182        1.40952868400466        0.86246107157586
H            4.16859820749812       -0.18961920485725        0.52213589858232
H            3.22081161161849       -0.40586022468348       -1.64902513163829
H            2.83272563927081       -2.07092470367592       -1.59367942901358
H           -1.23634629155269       -3.25109134929167        2.08907042688745
H            0.26278318934850       -3.78886392639286        1.46709033902927
H           -2.24291356854551       -1.42695866153261        1.40430088728005
