32
 energy: -59.924978314777 gnorm: 0.000358504810 xtb: 6.6.1 (8d0f1dd)
N            5.61764196806088       -1.25154728949139       -0.80485719393315
C            4.56997863200884       -0.86360878415473       -0.53655042686867
C            3.32364701284123       -0.32723993112220       -0.19890687814043
C            2.07626245318808       -0.93045899687042       -0.34792233505606
C            1.06425655625921       -0.04200697760743        0.04537346482351
C           -0.26358046477250       -0.45434996878639        0.11520071037265
C           -0.62361364238336       -1.82572109193071        0.09820438562116
C            0.16731055797445       -2.96646695979578        0.24790124591800
N            0.70549959277510       -3.97371265109417        0.39034214594699
C           -2.02737936033856       -1.94355707220844        0.02839814631045
N           -2.73503428615174       -3.07274535366961        0.03446294477504
C           -2.57197013411810       -0.62482124192679       -0.03546209354830
C           -3.95728602410722       -0.44166976337082       -0.04891207049424
N           -5.10661740827977       -0.45741745403894       -0.01380615471613
C           -1.53290013511506        0.31010679260017        0.05514390889342
C           -1.80480461231574        1.69042596122136       -0.01022126724285
C           -3.06155375095952        2.02974585340295       -0.57947710910740
N           -4.01241148883107        2.39840488975942       -1.10556629865698
C           -1.15219359129781        2.82581606948701        0.47858519652050
C            0.08584581973541        3.08132743884772        1.03489197506110
C            1.29927619912731        2.40070043200464        1.01539261249582
C            1.74646141613771        1.21110820701565        0.47487171914760
C            3.13969805037798        0.96961327711675        0.34272790803669
N            4.16534959086392        1.79707196558883        0.65043151627666
H            1.93045726756237       -1.91189884299830       -0.75458637514171
H           -2.26877992219542       -3.96204543499546        0.11008020769544
H           -3.74094483512570       -3.03685369173401       -0.00134484712962
H           -1.79237695871261        3.70343859868437        0.44435596576842
H            0.15688996049737        4.06803961468263        1.47792493436257
H            2.10100939565241        2.99164309597268        1.44886906214932
H            5.09261349609968        1.52279654618753        0.37338464331584
H            4.00578015013395        2.76937883172326        0.84317734774340
