28
 energy: -51.449042555403 gnorm: 0.000724929375 xtb: 6.6.1 (8d0f1dd)
N           -0.13423441134429       -5.11576269933889       -0.43153718136186
C           -0.26512302929291       -3.99545477428862       -0.21334504400842
C           -0.41946736846819       -2.61619322710083        0.04150151255457
C           -1.64054011240341       -2.27206623510808        0.70938514575627
N           -2.35028472038062       -1.21840374928522        0.65539981614285
C           -2.27396712235472        0.01959499212438        0.21694942680467
C           -3.34278713713551        0.78817383906144       -0.17735578616774
C           -2.87377755193712        2.13620386347777       -0.19515455756068
N           -3.60727041115215        3.21865084479881       -0.47080440070985
N           -1.57870264455600        2.23643644888285        0.11117607712904
C           -1.11596039017183        0.98313693053533        0.26564006661078
C            0.23852718183745        0.72568937278991        0.23648736333447
C            1.15151846523236        1.81485593950207        0.24426628894540
C            2.43374274377475        1.34023498894354        0.07850365426901
C            3.62764405995929        2.06715789285859        0.06965545658717
N            4.63643560054768        2.61779926831673        0.05599932527266
C            2.36925032396387       -0.08310117728692       -0.09240246147310
N            3.46666404764511       -0.83603769528545       -0.31214312140712
C            1.02341701622701       -0.49561477953788        0.00858604482072
C            0.68596819489393       -1.83356431380360       -0.22431190294635
H           -2.07770057110731       -3.07214109616900        1.30611538875346
H           -4.34717004854825        0.46314013600883       -0.35911583572736
H           -3.17948789279548        4.12500867983284       -0.40104180651430
H           -4.56706794966042        3.13411619523559       -0.75195285965946
H            0.85175958376335        2.83537611981225        0.37961738107487
H            3.42234684152808       -1.83894129220241       -0.32874785485756
H            4.37084234340732       -0.39759751152113       -0.28914032500040
H            1.51481207692810       -2.41677301935223       -0.61998116506193
