29
 energy: -45.557447068598 gnorm: 0.000910407463 xtb: 6.6.1 (8d0f1dd)
N            0.43921816891406        3.97913127577288        0.06293012082456
C            0.14078601249045        2.63944360292928        0.01222109472197
C           -1.22121392358598        2.35136839094050       -0.02509763795390
C           -1.99087872849670        1.19589192941780       -0.01369786555638
C           -1.79300040517593       -0.16719161609774        0.00540045399624
C           -2.92773640466605       -1.03916707660865        0.02059144516447
N           -4.26102902261315       -0.66349016117466        0.01278204106625
C           -2.48896188087478       -2.35318603689721       -0.03259863846552
C           -1.09572736203732       -2.35621703308487       -0.06573625828727
C           -0.60481385123737       -1.05054346567142       -0.03253842833066
C            0.77425946224995       -0.79269926074517       -0.03191755376753
C            1.74376357392096       -1.78412992242899       -0.05818056880151
C            2.99950823353770       -1.14375385777555       -0.01438119520583
N            4.20801601151504       -1.74464442171290       -0.06146701442564
N            2.88988072881047        0.18583129086439        0.03564205004596
C            1.56625114881349        0.47503873030210        0.02111407943076
C            1.28300002955874        1.81680053964097        0.04655753428722
H            1.38934307980537        4.27240371341270       -0.08101816917645
H           -0.28297542184814        4.65154637082258       -0.12985049335322
H           -1.82713547291455        3.25355940620511       -0.05456320863759
H           -3.04848399559985        1.44573101477507       -0.04232808036114
H           -4.48632045578087        0.19485416906269        0.49315942300785
H           -4.89156478162313       -1.41574660833272        0.24672781374840
H           -3.12100247115706       -3.22388978445061       -0.04247644703882
H           -0.50066595078571       -3.24827751636833       -0.10203741208254
H            1.60550682759579       -2.84583790732052       -0.10000607867420
H            4.27316331747577       -2.73412519158250        0.09673115483866
H            5.01573362930508       -1.17389185106230        0.11890351045946
H            2.20928304600370        2.38432483716803        0.08569009522639
