28
 energy: -52.246077910979 gnorm: 0.000926006241 xtb: 6.6.1 (8d0f1dd)
N            5.33472910163831        0.30673186922138       -0.09234952727008
C            4.18982076783635        0.25912316021510       -0.06504367502383
C            2.76703788048552        0.21508393043759       -0.03211921589738
C            2.19547648250282        1.50188606413221       -0.04959378289679
C            0.93114674042017        2.03034087197885        0.00210503482899
C            0.80018811807858        3.44434085964340        0.02827567398094
C           -0.53003554933150        3.78463539521680        0.11363437343531
C           -1.29123658497950        2.60838510523401        0.12578756860263
C           -0.45717088418641        1.49309573581441        0.05350912411877
C           -0.97342523851537        0.19068362672436        0.00863117024504
C           -2.34259702067376       -0.11039403504805       -0.02062261085611
C           -3.49378143710228        0.67243901441413       -0.04448013349203
N           -4.52072883158128        1.19284117749000       -0.06797740056436
C           -2.45567871614482       -1.53997862408565       -0.04662745289399
N           -3.58353099890638       -2.24205892465590       -0.08697322021763
N           -1.25495423529597       -2.11910405369993       -0.02657761373397
C           -0.32631022100326       -1.15359420296744        0.00077054104164
C            0.98734696674960       -1.63256981998504        0.03386884872211
C            1.02317241511278       -3.05976505560888        0.07094569300937
N            1.12724072459479       -4.19978022341446        0.10792629599032
C            2.26663437992818       -1.07589041656158        0.02092628082873
H            2.96096242834449        2.27413559621473       -0.09287377230560
H            1.63001674061784        4.12593546388486       -0.00134750337718
H           -0.93118956954032        4.78006225748157        0.16259938260030
H           -2.36166940434276        2.58287125381282        0.18552806879902
H           -4.47614435094922       -1.77793393130834       -0.10209579588784
H           -3.52845843799005       -3.24641139623609       -0.10406199270126
H            3.04690569783271       -1.83376621344562        0.04434842681521
