27
 energy: -42.104256339527 gnorm: 0.000414550237 xtb: 6.6.1 (8d0f1dd)
N           -0.40311381285857       -3.63233241397574       -0.62998561610584
C           -0.21809048908069       -2.32062271722967       -0.25939786959840
C           -1.44885104471653       -1.59366531853290       -0.20116661083275
C           -1.82403347155121       -0.30911275844084        0.01787546796862
C           -3.21681370487614        0.01286189018692        0.15277337500030
C           -3.34557192961579        1.35960340056651        0.30111588048559
C           -2.05827604842988        1.96196022903918        0.23332879444979
C           -1.09911580647599        0.99387796266031        0.07074905941061
C            0.27344166088387        1.27552989965300       -0.11331391072267
C            0.74429900808502        2.54265624720386       -0.46277510995761
N            2.08287856295013        2.61199968553460       -0.47892737819268
C            2.52804348769417        1.43867885412310       -0.06107744396516
C            1.48155127754218        0.50785456426858        0.15599691804163
C            1.74199021845011       -0.81981903535242        0.51875771113183
N            2.91805946001000       -1.03778756108141        1.16310545240295
C            1.04874868382374       -2.00249308797841        0.17296238364051
H           -1.25815558713912       -3.88896458155437       -1.09099676685356
H            0.40204254598149       -4.20040836883840       -0.82770164158331
H           -2.29853116532595       -2.26395659226841       -0.31835149421860
H           -4.00391906721651       -0.71855191488640        0.16422355966205
H           -4.26467995860062        1.89971655155197        0.44776089806689
H           -1.87728771724760        3.01626226800655        0.31843891334399
H            0.15984556512063        3.39400942758050       -0.75622524139343
H            3.58849467720319        1.24983326422337       -0.04147928205408
H            3.52461609345001       -0.25962250968410        1.35032337036155
H            3.28546705138622       -1.96740734047878        1.26680718654691
H            1.69291962995310       -2.87734545949586        0.24277677486497
