27
 energy: -52.521947642482 gnorm: 0.000727982507 xtb: 6.6.1 (8d0f1dd)
N            6.08475022585607       -1.26171619489836        0.15518281886500
C            4.99422290527464       -0.91900432810980        0.05494882557563
C            3.66717589380503       -0.48002935519009       -0.06476950624627
C            3.26426592742966        0.71755218763382       -0.69280716212896
C            1.88204018844747        0.84020168219116       -0.57156843072521
C            1.16925720182836        1.94617440503064       -1.04013617628465
N            0.08229095631210        2.44511271237174       -0.55744581623146
C           -0.95457982716627        2.12980654942320        0.15027301790987
N           -1.44746276123282        3.05934792994253        0.98600373307506
C           -1.73671809769074        0.91632271218020       -0.02609962689732
C           -3.12839459496578        1.15343624727186        0.00882510477725
N           -4.23374902483420        1.45703595624616        0.08020099377767
C           -1.25954349677674       -0.37423316307909       -0.09428671908155
C           -2.09104375831175       -1.52932130943473       -0.08856254384113
C           -3.46107508469541       -1.62214071217488       -0.34468845505700
N           -4.57773755026873       -1.76501184143858       -0.57184812095531
C           -1.26076755144216       -2.59927941153629        0.24919102543503
N            0.01248816317339       -2.23885354923951        0.41475472083534
C            0.11644906555635       -0.93147002988873        0.16331105624355
C            1.39365012266072       -0.37429255319511        0.09360795980023
C            2.53366806153044       -1.15162908407286        0.38666208950662
H            3.92144540326948        1.43646584417267       -1.14591841366280
H            1.64200453942259        2.56489656942192       -1.79836977554970
H           -0.98898581172634        3.95287560325707        1.05360174611898
H           -2.36250300655099        2.94785275475989        1.39132691793094
H           -1.55510642825371       -3.62694937870789        0.36645735002585
H            2.50272730255026       -2.11599852833470        0.85422814758328
