28
 energy: -45.834195617008 gnorm: 0.000842495811 xtb: 6.6.1 (8d0f1dd)
N            1.38840232893597        3.56376519130653        0.47515336601783
C            0.97543725492488        2.28453738397177        0.21974312987836
C            1.98825309886138        1.32741219603591        0.37392684714886
C            2.08109591094023       -0.01888710976012        0.10699634421002
N            3.30186345004215       -0.59205010615113        0.12244900877409
C            3.07372586009470       -1.88668344519975       -0.08711292238700
N            1.80812111729248       -2.26232392901878       -0.18585631386123
C            1.09298083452062       -1.11738021732278       -0.08257837903892
C           -0.28028578432522       -1.16812441079758        0.02588486955038
C           -0.91951693543340       -2.42283801570956        0.22704853886591
C           -2.26284922100046       -2.22308428787422        0.36942240735259
C           -2.53904675775209       -0.84260233239267        0.19407989602361
N           -3.82988170375104       -0.32837281103523        0.25805168376602
C           -1.34044050292761       -0.15329498495477       -0.03040671065704
C           -1.29445930136306        1.20529409688903       -0.44495722790253
N           -2.47081188734354        1.66744724250718       -0.98438134929306
C           -0.32739965576442        2.19304251261547       -0.28380351130360
H            0.73261946043468        4.32344142256654        0.47713618216240
H            2.30175784656922        3.72515216085943        0.85847922797598
H            2.94732697495657        1.74153162555396        0.66843607022040
H            3.88099747285047       -2.59428761635009       -0.16641248720179
H           -0.38055381352774       -3.34618245507242        0.29874357352125
H           -3.00888037100555       -2.96871038205185        0.58038776650301
H           -4.47737357258595       -0.96154745430836        0.70661363534379
H           -3.89410698184854        0.61051329273894        0.62509059839354
H           -3.11103703774143        0.98409310922653       -1.35281922492085
H           -2.45957001848774        2.56318810803208       -1.44305571020396
H           -0.71069356646610        3.17340473619228       -0.56210739033837
