29
 energy: -55.950796756794 gnorm: 0.000918316120 xtb: 6.6.1 (8d0f1dd)
N           -4.27280925635816       -2.40125911382611       -0.21045974033523
C           -3.32250773036663       -1.75892769632119       -0.13597221217928
C           -2.12249676993570       -1.00776855014189       -0.05358821478058
C           -1.01474928144267       -1.87500179411844       -0.01505563616535
C            0.34518830552461       -1.77866054850106        0.04733160677630
C            1.16085696528570       -2.96319958351705        0.11314066691542
N            0.77375631322919       -4.24433519760886        0.14775258343506
N            2.47211947081905       -2.67245551914600        0.15477329769087
C            2.58382413867110       -1.35540444998177        0.10734465800840
C            1.33818556563872       -0.68364387545296        0.04136893242914
C            1.22440992345412        0.69093903514178       -0.02461347060383
C            2.30680725072737        1.60217379581661       -0.07792065031415
C            3.68309552690444        1.38528119304867       -0.15414094939542
N            4.82684366428710        1.28903940546292       -0.22276298137056
C            1.74997283986780        2.89383568731246       -0.06716930104697
N            0.43091817303319        2.87932300507296       -0.00446483379547
C            0.02506127439709        1.59038947112505        0.00882134083091
C           -1.35356432151598        1.45605491178626        0.06274847327003
C           -1.94887394820406        2.74970737624436        0.15670893645555
N           -2.51703937724101        3.74351319234381        0.25037230781178
C           -2.31356407707381        0.38874655960707        0.00371242026474
N           -3.59850680824448        0.79758831368512       -0.00195245827959
H           -1.35731346014023       -2.90836389892559       -0.03668129074053
H            1.49499085709181       -4.94282276077804        0.19242207288889
H           -0.18892096189432       -4.52603848093510        0.11403895187858
H            3.55649130297392       -0.90348213039354        0.13049955437133
H            2.29007643871289        3.82293521398421       -0.10740086533531
H           -3.82465428485862        1.77924844302763        0.03499981763440
H           -4.34623912943005        0.12314860963332       -0.04509912444517
