25
 energy: -43.478633756278 gnorm: 0.000383179784 xtb: 6.6.1 (8d0f1dd)
N            4.38123009942008       -1.24274839305926       -0.27299539151374
C            3.37315714185391       -0.69059360040620       -0.20105192861865
C            2.17915997152919        0.01814056379407       -0.11643090668299
C            2.08537223476592        1.43255666127311       -0.12708241604486
N            3.11865843661355        2.27516852467374       -0.24549068082183
C            0.72851167913499        1.78202483097425        0.00104862083854
C           -0.05959616832921        0.64321710466456        0.06451402976943
C           -1.45983547522057        0.70004417199590        0.15345613214712
C           -2.18258071422943        1.90052307188380        0.31752274058407
N           -3.49005712196999        1.75256581462795        0.11898270479672
C           -3.68709036977396        0.48425454411348       -0.24244634027009
C           -2.49971885531761       -0.26133268320494       -0.22021944959871
C           -2.40075351584667       -1.61444495542028       -0.54130257019110
N           -1.61672413114957       -2.48293505685667        0.00222683364646
C           -0.45792385340519       -2.59769736130682        0.55149256633583
C            0.71421299019704       -1.86233329088227        0.31881771553938
C            0.88260930611645       -0.52647842567289        0.02236187429591
H            4.05319171791684        1.91660361187941       -0.34472339190686
H            2.97167969489590        3.26892187077806       -0.24061965487034
H            0.36956454799358        2.79263874621005        0.00770872972562
H           -1.79373357218804        2.85989860098624        0.60262114468980
H           -4.67403555362764        0.11599006568188       -0.45443190651800
H           -3.16936668054055       -2.04180386582654       -1.18083729811535
H           -0.35836321525963       -3.48220366937010        1.17697960834531
H            1.63645761602168       -2.41068889693036        0.48063413993849
