27
 energy: -47.727033884675 gnorm: 0.000719091148 xtb: 6.6.1 (8d0f1dd)
N           -5.02198130391799       -0.12693068189746        0.53497493556760
C           -3.89180189000949        0.01565938257115        0.38721402435601
C           -2.51983932126871        0.22498894417924        0.20815642744352
C           -1.93923744694416        1.45579895861218       -0.20029193330920
C           -0.56949830086166        1.30366411366080       -0.21066080325124
C            0.34794461994789        2.32650897680890       -0.60780183405880
N            0.01825802548314        3.11323911306374       -1.64767323166943
N            1.37587377646482        2.67831252077550        0.10945405896870
C            2.30357258175916        2.14758614437177        0.83247446912104
C            2.87718045886798        0.87138507423351        0.73834052685379
C            2.36354626443747       -0.32167189182916        0.27723184234158
C            3.17777617812944       -1.47150592486954        0.17827810031170
C            2.39551519853236       -2.56823367397221       -0.08346181435384
C            1.03422072642386       -2.17044585488361       -0.11988843663947
C            0.01033571008466       -3.07606750928155       -0.41145111676770
N           -0.77339609391311       -3.87614798392499       -0.67244260662786
C            0.94957757631957       -0.78266844914364        0.07131085396395
C           -0.26232536837886       -0.08548201451440        0.14453087093938
C           -1.50713829338775       -0.71044834383953        0.37147039328008
H           -2.48718301035468        2.35736392258558       -0.40591730432682
H            0.57620390334025        3.92218341122521       -1.86193472490999
H           -0.85555753493082        2.97246794813830       -2.12308336400037
H            2.78910581594742        2.85474060093819        1.50038808636993
H            3.89449135488148        0.81317747199657        1.10965473300705
H            4.24709310431274       -1.46437868123265        0.27776972760894
H            2.73413127078460       -3.57588055692736       -0.24570123307743
H           -1.64960010084960       -1.72822069884457        0.67632491965936
