30
 energy: -54.114081746956 gnorm: 0.000820801512 xtb: 6.6.1 (8d0f1dd)
N            4.70696731529539        0.90765185780027        0.51812280356739
C            3.59495017433323        0.66328182743369        0.33140381923249
C            2.24496655281836        0.38406386102003        0.08780135875228
C            1.57117372585431        1.38366888157392       -0.69677624908664
N            2.29278551009846        1.99153019838925       -1.66952840738801
N            0.39515029844100        1.88052762111012       -0.47578361495381
C           -0.75635013345212        1.51413401773915       -0.00947914745348
N           -1.69000603926878        2.38239914412748        0.35688022219237
C           -2.82766675864741        1.65096438177579        0.39093272959167
N           -3.99684155829822        2.21774583766390        0.69977775251302
N           -2.72029998917857        0.35242086324197        0.08673972393803
C           -1.39116075095857        0.15029591759491       -0.07959632490713
C           -0.80093790488215       -1.08331836043870       -0.15542752482580
C           -1.60518885754961       -2.28029005573919       -0.32661138065923
N           -2.92557082858687       -2.23472894167383       -0.61098197397980
C           -0.77625492224022       -3.38221840416790       -0.24390848157272
C            0.51359853538934       -2.93282061255845        0.05584051754901
C            0.56481604934086       -1.53756014480792        0.10372995778630
C            1.75336479541560       -0.86328450088802        0.51031844713317
N            2.58985052369220       -1.58261010954088        1.30152324542777
H            1.91258641983879        2.82657419842201       -2.08258546293579
H            3.28483708899708        1.83369390276349       -1.72417247418310
H           -4.00629005607299        3.18361952512762        0.97075068194217
H           -4.83214763043924        1.66329267298251        0.72711719763930
H           -3.36005948451277       -1.33663392642527       -0.41750320391502
H           -3.46621411799032       -3.07803716797417       -0.52540375539991
H           -1.06791176948184       -4.40720624724046       -0.37785303222814
H            1.35594135182951       -3.59525104740557        0.16346576137016
H            2.35253657023551       -2.52263752007848        1.55966221271832
H            3.51944271638036       -1.24444977822576        1.48571416973599
