27
 energy: -47.727772136833 gnorm: 0.000331510058 xtb: 6.6.1 (8d0f1dd)
N            3.09991176098747        2.49368058085838        0.63899550192409
C            2.08706837643059        2.02376809494648        0.37633095234222
C            0.77456457908976        1.54057777234761        0.11168414784182
C           -0.11943695922755        2.59919323030819       -0.00961656482449
C           -1.48563403412528        2.73964608412590       -0.22475445654239
C           -2.56312617956112        1.87359088041770       -0.23678148525515
C           -2.74640449308391        0.50831272517111       -0.04999913009435
C           -4.04310793070395       -0.01404816116138        0.00196641450650
C           -3.99172202352038       -1.39969922733056        0.17676719311713
C           -2.66818975409312       -1.78984636622276        0.21042533277121
C           -1.83623255619176       -0.65347071599843        0.08009260186077
C           -0.46292818372387       -0.81476335272737        0.02027695943358
N            0.00127016780447       -2.08405342840603       -0.00336270399919
C            1.32231114896563       -2.04066433580606       -0.06540862593626
N            2.08790766705847       -3.12915766056087       -0.13607617289275
C            1.80944347704725       -0.68273300307841       -0.04825759423427
C            3.17446055881937       -0.42185894614822       -0.14447615253265
N            4.31874615861489       -0.38434205553629       -0.25985922466714
C            0.68243624115574        0.13654738590026        0.00580981552575
H            0.38789731446113        3.55802584366806        0.06383396131616
H           -1.77348068056222        3.77595715824052       -0.36455746315226
H           -3.51012781673093        2.38512217271354       -0.38518924744437
H           -4.94081121856709        0.57273269750386       -0.07216626218579
H           -4.84365950246426       -2.04908895779386        0.26595308496019
H           -2.28957604131075       -2.78669739942802        0.32071650411605
H            1.65380347233256       -4.03525119650096       -0.15359665726136
H            3.08805122819877       -3.03993041330259       -0.19522252889323
