31
 energy: -54.613177830524 gnorm: 0.000543396501 xtb: 6.6.1 (8d0f1dd)
N            5.16513828289818        1.16440338702423       -0.07473915642832
C            4.11723233305352        0.69869786686123       -0.16508131128291
C            2.83694399235838        0.15091357966607       -0.25429757151845
C            2.46602014948743       -0.99853231493598       -0.95709928202000
C            1.11831840179718       -1.27101361977974       -0.70667308997058
C            0.52688521434742       -2.45777321469156       -1.12596256843189
N           -0.38954868811637       -3.16714660275034       -0.54078590323832
C           -1.34982479467553       -2.97259228063627        0.32241587519350
N           -1.66725128291572       -4.05807692420707        1.07232493366969
C           -2.23658214930348       -1.86504921950730        0.39969048154747
C           -2.02891671598464       -0.52647786663535        0.17522517747586
C           -3.10241052487383        0.38471475550142        0.21733904948418
C           -2.62062003407980        1.67568869096645        0.13571966117208
N           -3.32049818857133        2.82726648462703        0.12852160811544
C           -1.18262124127995        1.61916041651728        0.08873093224198
C           -0.45161168531147        2.78073472548573       -0.11759151789551
N            0.06573138808851        3.79791804342183       -0.29061398384881
C           -0.76710711487830        0.27915417955159        0.09630938476330
C            0.57025925970864       -0.13644066683016        0.05925590875694
C            1.68400374554182        0.69420011417562        0.36653440777793
N            1.74461947846017        1.71102690736578        1.26548484561388
H            3.13178160723051       -1.62341328023879       -1.52335770172470
H            1.01845645501603       -2.98438994421645       -1.94158303394102
H           -2.40461408311658       -4.01726390661982        1.75080257132850
H           -1.07180980134911       -4.86604213371141        1.03439973472906
H           -3.24291263905485       -2.12575453296142        0.70906017245095
H           -4.13723746851308        0.10485471636911        0.27756393709658
H           -2.83877878749686        3.68858561643992       -0.06896970047557
H           -4.31844092497668        2.80191853107954        0.01593890012530
H            0.89392449221095        2.16086034575125        1.55632794047371
H            2.56013736429896        2.30140297041768        1.22696899255996
