31
 energy: -54.600713571123 gnorm: 0.000516547935 xtb: 6.6.1 (8d0f1dd)
N           -5.08732848150227       -0.18049934975452        0.69504722726028
C           -3.95953048305326       -0.13635506207648        0.47380755150012
C           -2.59643010661902        0.01044479918017        0.21191806188267
C           -1.61023280913310       -0.96726322472077        0.22946638206107
C           -0.35849288466575       -0.36519020276976        0.01391466873820
C            0.80816265739411       -1.13107842698984       -0.01165882202889
C            0.84654113762053       -2.53427975977129       -0.12376069629397
C           -0.14433137624931       -3.43109964173090       -0.52041507295062
N           -0.91246619939146       -4.21876390771084       -0.85765811459628
C            2.17699919704224       -2.92267300677477        0.16455005107720
N            2.94710720014492       -1.90806509197778        0.48174545973603
C            2.20017753981454       -0.77223109134494        0.35245895301928
C            2.84627334563206        0.39543264702078        0.64658742697979
C            2.61711524203216        1.76259590911411        0.36026458397065
N            3.64553070319113        2.57246947614104        0.73851437302563
C            1.59613446389497        2.38714521785353       -0.34630014863142
C            0.26100668649014        2.10242762475363       -0.65808375185823
N           -0.34890964688747        3.06430797247916       -1.40137643423692
C           -0.60106224832938        1.06925902636555       -0.20553655141380
C           -1.98608850975123        1.25981568653361       -0.08978402118406
N           -2.71405856070880        2.43374208363117       -0.21549539115262
H           -1.77775285732781       -2.00571507954308        0.43704021392095
H            2.56320113465680       -3.92662058589580        0.13484560062965
H            3.82671772304012        0.20036772626914        1.07025379803498
H            4.48874167508430        2.17434790183672        1.11133033018748
H            3.65270647857208        3.54451624515261        0.48585965274706
H            1.87677208118465        3.38718022038724       -0.67056860379854
H            0.19538842301084        3.80541136869199       -1.80698773635852
H           -1.26553231074583        2.88658859750851       -1.77574841308681
H           -3.66422272244942        2.33971958421278        0.11968974931220
H           -2.26108196639154        3.26658686752877        0.13401665100771
