28
 energy: -52.237211031060 gnorm: 0.000760543120 xtb: 6.6.1 (8d0f1dd)
N            4.96054205823764       -0.83578076431335       -1.23463965412993
C            3.92018468839497       -0.86812893779438       -0.75059308316950
C            2.63128531561101       -0.92532306393229       -0.17191120368151
C            2.09883916845557       -2.18804608021678       -0.04371207314062
N            1.10924060004233       -2.59466162808281        0.72864915520659
C           -0.08481451316849       -2.24257223546317        0.98099764013299
C           -0.89370624185831       -1.27482493404272        0.31023099345992
C           -2.26735623329372       -1.39848606310448        0.15993436358582
N           -3.04923282370906       -2.46292786227900        0.41162073545138
C           -2.77672196178075       -0.15679460756120       -0.41032619217363
C           -4.12035706857808        0.02489461925096       -0.76006708367003
N           -5.23411307577410        0.10405623759836       -1.02705649175987
C           -1.74673114387053        0.73009147151523       -0.49596312488381
C           -0.52360906444612        0.08561873797077       -0.05951089790185
C            0.64931021336376        0.78217731546825        0.11058414420142
C            0.69629893901189        2.23076100602036        0.22408406527341
C           -0.38231344952301        3.11175516990913        0.34420892803134
N           -1.23191038880687        3.87758748082200        0.46220126342800
C            2.00797117968457        2.62041849088035        0.37584123250777
C            2.83786698586290        1.47685526485770        0.29417342379970
C            2.06365605016610        0.34703747289336        0.16921527520721
H            2.65664866921839       -3.01123574718421       -0.48180723547908
H           -0.56781999697853       -2.81837666573138        1.76973326322432
H           -4.04395289210108       -2.39145674518157        0.28078176332233
H           -2.67570389804193       -3.28109618501681        0.85871307837276
H           -1.80848349554630        1.72347288573150       -0.89481815161451
H            2.34493719544977        3.62733976631198        0.54199503644401
H            3.91125043407760        1.49294124467397        0.33168524465648
