25
 energy: -43.482276560194 gnorm: 0.000869331064 xtb: 6.6.1 (8d0f1dd)
N           -4.56376413525688        1.90733039910074        0.18157064461260
C           -3.51136430362920        1.46117827550739        0.07601843065838
C           -2.21619902607792        0.91077944693924       -0.04771405006291
C           -1.26852119657605        1.73437995697540       -0.69442199843598
N           -0.00174356554571        1.79179925026381       -0.50133988455640
C            1.01443534883108        1.12295417334183       -0.07804265198375
N            2.12616223755766        1.75093201625476        0.30958537443685
C            3.09828997073063        0.82138727615249        0.32141124201044
N            4.34821148795729        1.15337667449203        0.65133242744715
C            2.62902779278783       -0.47435773904623       -0.02103498047387
C            1.26460571185074       -0.36493424744070       -0.19030173195400
C            0.31913624094429       -1.39824189290633       -0.20578389000606
C            0.69758139857269       -2.74420616084931       -0.27705549098711
C           -0.40079064958360       -3.55864326132684       -0.00369366384015
C           -1.47985221586751       -2.74900858485485        0.29712516753145
C           -1.11384921554158       -1.39012491718474        0.14857130687295
C           -2.08247690884439       -0.41830065018419        0.35367692470425
H           -1.65694201478310        2.51114112400622       -1.35063786403939
H            5.09403337793822        0.48312168445856        0.60436438346208
H            4.54175181629925        2.10794898936861        0.89918331308967
H            3.23385877121539       -1.35803859250003       -0.05580847441929
H            1.68455931062510       -3.09217768396297       -0.51775145189230
H           -0.40288060944964       -4.63335781381365       -0.02191522457059
H           -2.46644167080931       -3.08376042302008        0.56161761086031
H           -3.00392733444531       -0.82616122877110        0.76353380023567
