29
 energy: -50.374579868232 gnorm: 0.000167115926 xtb: 6.6.1 (8d0f1dd)
N            4.54770782253907       -0.78183986211570       -0.93630264767631
C            3.46971873365181       -0.51032760645041       -0.63135950967069
C            2.16120919756123       -0.16325344978621       -0.26674062709016
C            1.22529784750239       -1.17159067894115       -0.32325979074698
C           -0.12805211611940       -1.29586258436635        0.00350832207302
C           -0.72775282266176       -2.58355571486733        0.07221919006314
N           -0.09132329562918       -3.77228699555607        0.01622812948148
C           -2.11778520656681       -2.46896286812080        0.28148341024186
C           -2.44640449563657       -1.13425717818419        0.31109707816534
N           -3.64148658661278       -0.56975615811872        0.48432854852451
C           -1.21201695217836       -0.33636065436249        0.16628647550580
C           -1.27751764202722        1.02318702377472        0.07567383822642
N           -2.49802077954103        1.66037465176435       -0.07402698957887
C           -2.24021904786327        2.86787983279568       -0.52127766359056
C           -0.86496385979814        3.15477037759530       -0.60931619333080
C           -0.20241948013789        2.03066686965938       -0.15422389497145
N            1.06964628373616        2.01097407813948        0.19666774830060
C            2.02520014479554        1.16666878837365        0.32309866601693
N            3.09239866796464        1.57186840812506        1.06057911943565
H            1.66980763653225       -2.10935799918037       -0.65287997173817
H           -0.64118990662029       -4.60974129689001       -0.05825770673266
H            0.87397208485218       -3.82329459338443       -0.25960189931727
H           -2.79568125061825       -3.29490598685346        0.39165511305397
H           -3.64772685475060        0.44822583711033        0.33207360385233
H           -4.47102795330653       -1.13653870418653        0.50050520898926
H           -3.04944702363439        3.53837541868290       -0.75891037008287
H           -0.42306803770159        4.08397517163620       -0.90770456950778
H            3.96377546025707        1.07429420706740        0.98981241413826
H            3.10451985611249        2.52422372234013        1.38362338516682
