33
 energy: -58.049415385613 gnorm: 0.000633095674 xtb: 6.6.1 (8d0f1dd)
N            4.89103707303241       -0.68785971602499        1.21093426311358
C            3.85840765416508       -0.48723257124001        0.73951621243926
C            2.59484895266413       -0.24317883323506        0.17485304801453
C            2.19263835772333       -1.22879642474763       -0.80221950841354
N            3.23335196506637       -1.77427559169434       -1.49881687304494
C            0.94514675330086       -1.76531599242606       -1.03056778101244
C           -0.32918738009646       -1.55350730141246       -0.47732829396313
C           -1.27115619447730       -2.56890208572167       -0.46441685386054
C           -2.48171367255012       -2.09185182837563        0.07201094701763
N           -3.59625330734731       -2.81109770427846        0.29666731374968
C           -2.34266044708722       -0.70542359985705        0.31111044557452
C           -3.34330364838337        0.03816688874376        0.91746155313613
N           -4.22214352087179        0.59053524485363        1.42465143190959
C           -1.01917933807850       -0.31578493563102       -0.03164335190437
C           -0.55232893874369        0.97609681752259       -0.14930772523512
C           -1.34964222170718        2.16014288247726       -0.49478194534213
N           -2.63171946405705        2.18093089448811       -0.92253884936413
N           -0.59724984700810        3.23869688885009       -0.59561048143978
C            0.65281439844196        2.87456408366976       -0.23825517068951
C            0.78111607419458        1.51298876203815       -0.01499643379265
C            1.97585027242477        0.94366470373502        0.54485529241932
N            2.59959145604362        1.73460552021410        1.44802165839620
H            4.17697084089740       -1.56511933942660       -1.21856125817294
H            3.08415174515164       -2.61835356243584       -2.02460947300671
H            0.97042469593455       -2.63829512038603       -1.67795526824221
H           -1.09619778477122       -3.58442141269582       -0.76905994484872
H           -4.37183493992671       -2.38623838356358        0.77588023152636
H           -3.58109377004585       -3.80979172216824        0.19188335870652
H           -3.30253023212782        1.54569304982380       -0.52219395140077
H           -2.97020180355996        3.10180479869173       -1.15293874669992
H            1.42945091820847        3.61881181497034       -0.20754273723406
H            2.19502229312015        2.62039035778125        1.69316585672151
H            3.50054547626921        1.48106824906304        1.81873867184280
