31
 energy: -53.820640041209 gnorm: 0.000728139811 xtb: 6.6.1 (8d0f1dd)
N           -5.20621609019234        0.94756032014417        0.36871421912600
C           -4.11265413380338        0.61765769563005        0.21753219294366
C           -2.78452385973755        0.24630475653164        0.03634696253621
C           -2.30129019252809       -1.06732941300148       -0.23239153974594
C           -0.92579382953752       -1.07261608685800       -0.30397037087795
C           -0.21031545239495       -2.24493112845533       -0.76104509191683
N           -0.97006113010575       -3.06858750137396       -1.55766751584239
C            1.01516169880663       -2.71475797271354       -0.38517470240125
C            1.95939203279303       -2.15697217923483        0.53497481819534
N            2.61535353030605       -3.06291868401616        1.32174068381701
N            2.43183714274429       -0.95677692092137        0.59509311089087
C            2.10927787610482        0.23635914760111        0.13923130551151
C            3.00785253219564        1.26559781042710       -0.04498201457992
C            2.23767223862751        2.44781852157333       -0.16949071286061
N            2.72248483274952        3.69633216835918       -0.30131815298245
N            0.92313103674378        2.22471913441678       -0.09327302788572
C            0.75884136847296        0.87784622599350        0.00562401135254
C           -0.47972521990535        0.29766538707548       -0.07624593578367
C           -1.68834080185216        1.10294470160214        0.05792988857684
N           -1.67585938173808        2.43378524381065        0.21204376406516
H           -2.94574790622936       -1.92323431957110       -0.32775835541793
H           -1.75333991675012       -2.66379586855087       -2.03963650318354
H           -0.50901679186240       -3.83737681929553       -2.01381441947649
H            1.27140028153151       -3.71064545396514       -0.72934552929607
H            2.19461317155686       -3.95863799656123        1.49335101176253
H            3.23626280968177       -2.69188615588434        2.02089900950474
H            4.07704475236676        1.20625404738284       -0.03156362707871
H            2.07618008349482        4.44966206039341       -0.45479964228761
H            3.69138629956591        3.83297092205055       -0.52479442654973
H           -2.51649948776588        2.92237379093101        0.46454958476474
H           -0.75040984383673        2.85806524357870        0.20605728151955
