34
 energy: -62.583773749881 gnorm: 0.000971206720 xtb: 6.6.1 (8d0f1dd)
N            5.26104559423763       -0.47780268885626        0.22624957872916
C            4.16249005363841       -0.14258049687959        0.14970620367753
C            2.84820095435128        0.31030184573105        0.07767183682005
C            1.70179953577473       -0.45478619612959       -0.12825358390200
N            1.73770566142029       -1.69776734765186       -0.58238852064659
C            1.15303637341610       -2.79427762775400       -0.27802042158872
N            1.37376140766025       -3.86782087638452       -1.06269014163107
C            0.29389555721474       -3.00804653866272        0.88277899383915
C           -0.79536835809344       -2.27050136072155        1.15517972152735
C           -1.37319789991760       -1.14386053177916        0.47743375930553
C           -2.75601499647155       -0.95517476713530        0.50260011393943
N           -3.70419591263750       -1.80319670760231        0.96816893579853
C           -3.08761211175858        0.28284296974591       -0.15029179935851
C           -4.38160895784151        0.73920714903510       -0.37800465188648
N           -5.46098253894182        1.10679218724830       -0.53913572922505
C           -1.90397373529971        0.90976944533109       -0.50274697029102
N           -1.81529353740868        2.00028314016961       -1.28866489951364
C           -0.78748630132344        0.05184458649222       -0.09947101143221
C            0.53517863057369        0.44802134866876       -0.11200213651872
C            1.06981864846773        1.77489816679568        0.02703244579443
C            0.41260269984347        2.98549922930376        0.20109866358594
N           -0.05596778324429        4.03009078142489        0.35129663313014
C            2.45881718343058        1.68323660043069        0.20143230951867
N            3.30399712427477        2.69859818753494        0.43414238577845
H            1.00964924260980       -4.76894570840914       -0.81415146125899
H            1.98184072836377       -3.77877761352112       -1.85786192011099
H            0.50084518855498       -3.89230834506185        1.46839625664430
H           -1.40825019907540       -2.63569479732730        1.97660755630867
H           -3.43428205933686       -2.57071997894597        1.55817924389592
H           -4.64071404166251       -1.44840962387793        1.06771261214637
H           -2.65781684046559        2.53235506196424       -1.43667198821419
H           -0.94688061213465        2.50319619653432       -1.35902367257710
H            4.27391664098887        2.51061543976064        0.61969675572953
H            2.95040869248438        3.63371686481944        0.54292175438744
