35
 energy: -67.881993273904 gnorm: 0.000965646237 xtb: 6.6.1 (8d0f1dd)
N           -5.72379981840908       -0.79227535240828       -1.28197250757404
C           -4.63113849570062       -0.73314496817431       -0.93147722733508
C           -3.30538445761885       -0.63513060124633       -0.50196617344921
C           -2.48734654076819       -1.70840277401484       -0.05506033859266
C           -1.20420682192669       -1.25902512956719        0.18520800318901
C           -0.21748397681251       -2.10015094787316        0.82276054396734
N           -0.71500619340931       -2.94691678700301        1.74612072531220
C            1.12382566240259       -2.22308927816564        0.47372064318812
C            1.81901872111220       -3.30625336922779        1.04807633902216
N            2.38120798152962       -4.19023706432200        1.52293715506194
C            1.88473025286426       -1.50755399360726       -0.51782778760877
N            2.75471070910415       -2.25386501575908       -1.23002291862439
C            1.90727915457614       -0.11981836313233       -0.70252172601054
C            2.83889492255634        0.35161802881954       -1.65511112089707
N            3.54397604380542        0.69513949890634       -2.49493390985989
C            1.23736853997727        0.91253587549052        0.01171449609578
C            1.83720126330245        2.14831894277420        0.26562745574767
C            3.20386448801458        2.44056280760581        0.16451912601169
N            4.32351208892570        2.69177044033957        0.13535969317452
C            0.86644804416798        3.04837520040898        0.77385701819476
C           -0.36816394340392        2.43330043806889        0.73495446636768
C           -1.53729498943712        2.97463204851109        1.27790982652738
N           -2.49384091574957        3.43810703576179        1.71691796629853
C           -0.19963341237137        1.07401811923197        0.27922472855073
C           -1.20399002443033        0.17941666108115        0.00342697096479
C           -2.55987101967319        0.53581943292545       -0.43646943271600
N           -2.93944112240611        1.72926532972979       -0.92386686389560
H           -2.83069283795178       -2.72395086422635        0.03143517903816
H           -1.68681521212974       -2.90590341671349        1.99766907848391
H           -0.12451397292149       -3.63600940574743        2.18331456658709
H            2.86974745699248       -3.23234197181600       -1.02268851502957
H            3.43778079727157       -1.80336914325467       -1.81916879865969
H            1.07157165562812        4.03514497819053        1.14646045808201
H           -3.90156474592256        1.83615700614611       -1.20329908577991
H           -2.42724042659559        2.56676011796561       -0.70309850062903
