23
 energy: -40.021349934410 gnorm: 0.000407713695 xtb: 6.6.1 (8d0f1dd)
N            4.49258935363218        0.49912585049675        0.86123880729570
C            3.48763551929508        0.02467911536018        0.56811928962387
C            2.26761265961899       -0.55749412837557        0.22139908165482
C            2.00338066171148       -1.94206878195078        0.10442100766514
C            0.69138698367873       -2.15144850482888       -0.26769391704287
C            0.02531090119457       -0.91188754577032       -0.31647066317095
C           -1.32626135002174       -0.70364196709594       -0.20114503729965
C           -2.28400203494469       -1.77454586167537       -0.22763075649725
N           -3.50236594182623       -1.36685821056374        0.01639601132673
C           -3.43019872019838       -0.04326948063051        0.28570011564612
C           -2.14581004373342        0.47407421507260        0.15338388639408
C           -1.91063203966940        1.84404887235414        0.38273632595740
C           -0.91136788242647        2.70136731119623        0.01185592667906
C            0.30921631067168        2.40566795161928       -0.63385517187285
N            1.06436674832861        1.38361688462613       -0.47702155762991
C            1.10153842939612        0.14061742415650       -0.14826647832054
H            2.73626525762500       -2.70906614212172        0.28277627797107
H            0.23845398690098       -3.10925271799771       -0.43373396873330
H           -2.07885840151776       -2.80394427684722       -0.45187487296282
H           -4.32130109620621        0.50042710866312        0.54184875973538
H           -2.77721511934875        2.32984732396175        0.82192893337607
H           -1.10095033907880        3.75729155861772        0.15618320278862
H            0.75158514641514        3.19351746763484       -1.23931311738366
