28
 energy: -50.662523664952 gnorm: 0.000711670536 xtb: 6.6.1 (8d0f1dd)
N           -4.71348158978860       -1.38507594445056       -0.28557879597734
C           -3.62250328909966       -1.02633764533446       -0.19835162712126
C           -2.31371207177184       -0.56548367255942       -0.10517236776900
C           -1.93544871975369        0.82254722126883       -0.07067003768801
N           -2.84172224880456        1.83653017133452       -0.05786379478431
C           -0.54764768742950        0.91988130157811       -0.02396750833591
C            0.18473669034546        2.12931565863398        0.27824044544322
N           -0.43614469471103        3.01373566635472        1.11084942680779
N            1.28621009306359        2.52716143722068       -0.24735166213355
C            2.32380612427252        2.05831339520252       -0.90292278328074
C            3.03199275470776        0.89819669474214       -0.71102704069305
C            2.62351999656972       -0.31208345407774       -0.12977850552774
N            3.51456638650347       -1.29045485896368        0.02232562261161
C            2.80278935584001       -2.37664818064150        0.36032446953869
N            1.49977158082449       -2.22664051718203        0.40005408465087
C            1.27876879413916       -0.89553267246430        0.12300818885790
C           -0.00451764493145       -0.41497447196735        0.02218052047610
C           -1.15865838933147       -1.32788704972989        0.01162248482847
N           -1.02935570935549       -2.65067765152049        0.04874423575179
H           -2.51539203102741        2.76107627014942       -0.28667639268210
H           -3.78007801665887        1.60662787470946       -0.34493263656351
H            0.11601303793829        3.78604866439933        1.44715342170837
H           -1.17601201863115        2.67792021817375        1.70354275163658
H            2.75495052410131        2.79532079124128       -1.57653323372476
H            4.03011073765496        0.85699062598472       -1.12447171742829
H            3.27637065493301       -3.31761806415145        0.57780934179067
H           -1.83653833240742       -3.24902089530754        0.02003058526784
H           -0.06990306069089       -2.97905493924277        0.21483762303938
