30
 energy: -54.904121415922 gnorm: 0.000999524580 xtb: 6.6.1 (8d0f1dd)
N           -5.43379970160898       -2.04956379884538        0.54566600002688
C           -4.40655597184484       -1.56390276144758        0.37373425564188
C           -3.16857204704606       -0.95181786806423        0.15224148430161
C           -2.99701821115162        0.40902004451807       -0.24890116678996
C           -1.65283721674222        0.70016788694940       -0.31502186103262
C           -1.19184636168159        1.97834209421032       -0.82219090847120
N           -2.03674423074433        2.54915917688941       -1.72308718199764
C           -0.14135709638966        2.73707500233682       -0.37699324113795
C            0.89118560177988        2.38920236979140        0.54470047920278
N            1.29003138662861        3.34374795784441        1.41731108259162
N            1.63809341426273        1.32744749735655        0.51262979979365
C            1.57972216390319        0.09911287285622        0.08943412729868
C            2.68912367590942       -0.72470198637842       -0.13519164436292
C            4.03340735652466       -0.38742264779909       -0.22191484679229
N            5.15836014760692       -0.15878334611950       -0.30812574821487
C            2.16958678930491       -2.05696135039967       -0.19041564310084
N            2.89084884661476       -3.16579394013269       -0.35918843664762
N            0.83871278213179       -2.10021204682858       -0.04919901726844
C            0.40701494779340       -0.83584607081109        0.04037217586250
C           -0.94042569621107       -0.52527631322115        0.03063911121111
C           -1.92252269543812       -1.52591910306089        0.26735073065546
H           -3.81434099680094        1.08791608161127       -0.41550184274177
H           -2.78891262865741        2.01254451547514       -2.11301025842600
H           -1.81456647490814        3.43945876716951       -2.13012754952466
H           -0.11374690729990        3.76571694592886       -0.71789469560784
H            2.09140314076681        3.16828407769168        1.99796348497733
H            0.81858193235267        4.22729517675166        1.47032940218445
H            2.42440176345299       -4.05593883202457       -0.34812004021228
H            3.88593815040933       -3.11160602257330       -0.49043004271676
H           -1.69102774601534       -2.53579550357562        0.54245748070046
