27
 energy: -53.306237217806 gnorm: 0.000953638953 xtb: 6.6.1 (8d0f1dd)
N            5.87430223798946        0.00837380105803       -0.73223605801052
C            4.76438150973316       -0.15656536928858       -0.49476433124582
C            3.41115950988085       -0.38717793510454       -0.20572535052139
C            2.91184407348324       -1.54610469135800        0.46719652719502
C            1.54167244972788       -1.46935452966413        0.50912799484468
C            0.69846913139830       -2.44314081779708        1.10151487062509
N           -0.41354047670953       -2.84156718962066        0.62077589680831
C           -1.37171305412289       -2.48562220174104       -0.17087195672212
C           -1.99762081608029       -1.23143093803071       -0.23084369872242
C           -3.30547418052370       -1.27407209937025       -0.77688199030966
N           -4.32701077587257       -1.37163485052928       -1.28782446265798
C           -1.47706778271888        0.02845678155929        0.11500485594782
C           -2.28634122297689        1.16729310606570        0.23753117277031
C           -3.67608039814334        1.20223834070067        0.42548186987848
N           -4.80101693621145        1.28468113793822        0.63534153686640
C           -1.47289285986654        2.31835154408951        0.23540571425030
C           -0.14948250628575        1.93589610853772        0.06404220667864
C            0.90387854542786        2.86108892688395        0.09499891665933
N            1.72075068525347        3.66630659797380        0.14070295343600
C           -0.06320594626094        0.50823133026895        0.03752695329467
C            1.14227664309259       -0.16625883347988       -0.06820759692935
C            2.35374387792404        0.45293879016022       -0.48906758135668
H            3.51700229992663       -2.35187219082081        0.83811859217790
H            1.08488600879352       -3.02208174579118        1.93528846690126
H           -1.84663974206978       -3.30636788622414       -0.70065682531890
H           -1.82274627771806        3.32657042834637        0.36362293307711
H            2.42954390352965        1.39769372263813       -0.99047909851369
