29
 energy: -50.388312365237 gnorm: 0.000793960403 xtb: 6.6.1 (8d0f1dd)
N            5.41014834880647       -0.24838842650487       -0.03103175996342
C            4.26891781140402       -0.39622281942351       -0.01611556273792
C            2.88261351682859       -0.54386233043297       -0.00134643579091
C            2.16270091243489       -1.74424416376684        0.01063082555404
C            0.78804156894234       -1.48959147423040        0.01560251735566
C           -0.08702754537728       -2.56922480743810        0.02803188030212
C           -1.44984326187065       -2.77899621610187        0.02383556280788
C           -2.59010007623112       -1.96089505686457        0.00348996160010
N           -3.76828617430616       -2.64750046187090        0.01137775191226
C           -2.75807799906084       -0.56640161857501       -0.01216977538748
C           -1.94412987434873        0.54139852216027       -0.01238398070350
N           -2.55876434939900        1.73946667288277       -0.02516618040590
C           -1.57375195333973        2.64315791508300       -0.01982067316205
N           -1.81481798367416        3.95990163923314       -0.05042392873892
N           -0.32440333521239        2.14936272483386       -0.00462282035412
C           -0.46846025038869        0.80757741118184       -0.00085550683550
C            0.63430570202680       -0.01948764802467        0.00735730281350
C            1.95719733939029        0.52425722402489        0.00022797308028
N            2.25171503901744        1.83034148397205        0.00342867577489
H            2.61049677730655       -2.72191120557971        0.01418620685986
H            0.46390192744611       -3.50657198721985        0.04026574526117
H           -1.71137887600177       -3.83324729621504        0.03580561578984
H           -4.64231694189660       -2.15807609978608       -0.05537069930520
H           -3.77699565125865       -3.65058967370192       -0.03260518275531
H           -3.80042375305484       -0.26061253799901       -0.02550188010038
H           -1.05354833109406        4.60553583775143        0.05096188777416
H           -2.76361129354460        4.27746763778256        0.02456909129856
H            1.44624792690155        2.45246925465976       -0.02047744054002
H            3.20629001715422        2.13890427956979       -0.04367836200373
