27
 energy: -46.120854899697 gnorm: 0.000805803272 xtb: 6.6.1 (8d0f1dd)
N            4.18323846911050       -1.21122121854720        0.78742522758461
C            3.02338214889261       -0.64266714244802        0.43263976988254
C            1.85075192323042       -1.32024020479671        0.02513759276845
C            0.87902038654893       -0.34763255643189       -0.14303493876272
C           -0.50317789012324       -0.48368747988243       -0.18500511552994
C           -1.15416513362615       -1.73607557907814       -0.32835602942875
N           -0.60006787571698       -2.91300943403280       -0.73744910934517
N           -2.45728403299783       -1.69284331372029       -0.00461958365382
C           -2.71059380146493       -0.44327132027898        0.38926495225993
N           -3.95279435443119       -0.13112049413776        0.84306964344085
C           -1.57804073608163        0.42649780586453        0.25937968257185
C           -1.70755289764844        1.78472953698312        0.47317515187882
C           -0.96452559845757        2.88872131828027        0.05565532391969
C            0.28493696899059        2.90200284910350       -0.54472784809707
N            1.30594410173032        2.13110460672525       -0.32522576850224
C            1.64897856541886        0.95199395707872        0.03930008101712
N            2.89065961899595        0.69641537353099        0.46464577820645
H            4.30913758127149       -2.20579385854977        0.74360615133080
H            4.92695346272381       -0.61976219614884        1.11205100058881
H            1.73496795467312       -2.38530874016615        0.02934642454881
H            0.17150533578779       -2.84721269861173       -1.38164692009972
H           -1.27877142141367       -3.63119805626965       -0.93835364207846
H           -4.25061293918399        0.82906495655208        0.83266838946226
H           -4.65810027807227       -0.82386519526869        0.65390045429395
H           -2.66890238378373        2.06245019547268        0.89710241956875
H           -1.48644440273803        3.83759517260545        0.08009609684640
H            0.52221873826548        3.74930269517252       -1.18666354497226
