31
 energy: -49.788037274762 gnorm: 0.000744541676 xtb: 6.6.1 (8d0f1dd)
N            4.24049156431827       -1.83893471957426        0.57375862871088
C            3.22004743279863       -1.43652245696332        0.22232676784278
C            1.97254476309234       -0.93397478349860       -0.19015198190233
C            1.29210639467634       -1.80999738256072       -1.13484821016471
C            0.01944456237808       -2.22164801206261       -1.14063306495567
C           -1.07980075489910       -1.89532110394126       -0.26301375614975
C           -2.07101306835244       -2.79122873092997        0.03185939716787
C           -3.09518995964237       -2.14157785790810        0.79231459717112
C           -2.80370321526875       -0.81701104640637        0.86204138744634
C           -1.52565290922347       -0.59209954853018        0.22715494511919
C           -0.95740501272753        0.64299953193133        0.02053561238334
C           -1.76445767440063        1.88480454117878       -0.14468028847160
N           -3.11974294055415        1.90661743924200       -0.19078737018572
C           -0.91522301490494        2.92836560150524       -0.34233870444003
C            0.42544499271032        2.43157405387447       -0.26034055825512
N            1.51974821760640        3.20219758060219       -0.40920395369619
C            0.40476384750973        1.04023967919516       -0.08442414855498
C            1.59753699842591        0.29339971863667        0.27497055973781
N            2.48847047621374        1.01542861695551        1.06651796664146
H            1.96795638809319       -2.27765590970522       -1.84406774631300
H           -0.23519781039774       -2.98242940316883       -1.87187639386027
H           -2.07982733593290       -3.82978057147090       -0.24654880567291
H           -3.94616018637122       -2.63612440729901        1.22572060079444
H           -3.33434667116247       -0.08015051958835        1.43732721952973
H           -3.59587856966470        1.02565521419132       -0.29595845841615
H           -3.55804794908850        2.71604265897916       -0.59806493365999
H           -1.17964093042079        3.94923259221537       -0.54435671996787
H            1.43074730157218        4.20078495192176       -0.45921120106708
H            2.42914730484951        2.78728987281017       -0.29079151401852
H            2.06013829675673        1.61910402477063        1.75258448992582
H            3.26369070011032        0.47565092239786        1.42747097348116
