27
 energy: -42.124217734143 gnorm: 0.000696110941 xtb: 6.6.1 (8d0f1dd)
N           -0.10922714021314        3.37356200646921        1.06948354346005
C           -0.04515387876842        2.21098522043209        0.35878542935169
C            1.27474183042163        1.74349259131796        0.05279377004960
C            1.74850736372661        0.48674705896119       -0.15506312376737
C            3.13722079041404        0.26178145580401       -0.39808991693773
C            3.39190496633482       -1.07550190056522       -0.28423973008485
C            2.19012496403456       -1.75882788180048        0.01714226781513
C            1.13872830187053       -0.86742518928809        0.06911036560306
C           -0.19911621736594       -1.25541658197963        0.29808540552890
C           -0.55136846298347       -2.54543965121839        0.72997613450445
C           -1.92249434579893       -2.71578710205761        0.61539299644146
C           -2.46813145015543       -1.56307631394987        0.05674253199823
C           -1.44561840523512       -0.61986831421021       -0.11456806975125
C           -1.67815751541483        0.68067795376439       -0.60817825288669
N           -2.67007328615134        0.85781196184051       -1.51482356053675
N           -1.16990386055862        1.79263491725968       -0.12087780582714
H            0.69615580483215        3.67974158073435        1.58510331402263
H           -1.01455021630320        3.68350389573722        1.37816898949982
H            2.01592707858929        2.53669814344320        0.03051299699881
H            3.84541687517723        1.04147122654215       -0.60973934716900
H            4.34922346970709       -1.55132731600480       -0.41108389080635
H            2.11520275585647       -2.82294662322712        0.13152265956120
H            0.13338622704168       -3.27710731473009        1.11442725768938
H           -2.47464473583824       -3.59490547112060        0.89723960352691
H           -3.51595429519397       -1.39245609234481       -0.12272424901649
H           -3.23812316732199        0.07113726547897       -1.77294243096378
H           -3.00112699340353        1.78861532241201       -1.70260286930364
