32
 energy: -59.124174371119 gnorm: 0.000500598028 xtb: 6.6.1 (8d0f1dd)
N            2.45122822786577        4.20161502224618       -1.29202977054483
C            2.05120418861754        3.20683564521016       -0.87804523139558
C            1.55531656736513        1.97856724866920       -0.38277125399126
C            2.41045564505718        0.91819620455313       -0.56390064273851
C            2.37871628974053       -0.42119808409836       -0.16193719364793
C            3.54513375342570       -1.18575949703522       -0.08309785340258
N            3.33081559165753       -2.45129062721598        0.31218271122840
C            2.01677872601910       -2.59802329089266        0.40530396628259
N            1.47145653832168       -3.77268993286414        0.79286404799195
C            1.30247039441446       -1.36736364592995        0.09977832024940
C           -0.05194307283664       -1.29230475241471       -0.13181051138727
C           -0.86891136555622       -2.40331186762557       -0.44361199282293
C           -2.16783967569532       -1.97885681838804       -0.62762741967077
N           -3.24077055971112       -2.69056551944656       -1.00284283084488
C           -2.22274758027090       -0.55841890305156       -0.32639878406161
C           -3.41233297512711        0.16245542637118       -0.43393055647095
N           -4.43197453139178        0.66628562401407       -0.60617644670181
C           -0.94558389098853       -0.10712741245118       -0.04775629475384
C           -0.72195312676036        1.19225418897271        0.49544834554252
C           -1.82958229674397        1.66514594224118        1.23787974793219
N           -2.67718395130731        2.04894447150514        1.91372943282520
C            0.32456036871246        2.10795142762674        0.36767553880530
N            0.16803529564650        3.31613339822981        0.95647037746082
H            3.35064474120635        1.19414524104499       -1.03489281125976
H            4.54814493177725       -0.84076248951383       -0.25728600556680
H            0.54281318403285       -3.76508609847435        1.18138095923011
H            2.12531850480430       -4.44484750247309        1.16191478488549
H           -0.50666265032297       -3.38867807305454       -0.66357168906233
H           -4.11814862817441       -2.22215075498228       -1.15600871853613
H           -3.14743192065477       -3.65414433685880       -1.27077709084709
H            0.84075344197756        4.04704163217821        0.79385558065779
H           -0.70068968809960        3.54826179050814        1.41087472671529
