23
 energy: -40.020058640410 gnorm: 0.000170878551 xtb: 6.6.1 (8d0f1dd)
N           -4.21263764961644        0.80138730163481       -0.72244019012947
C           -3.09859846588008        0.75918899949557       -0.45051034053622
C           -1.71871599242324        0.73409397361655       -0.13466611266421
C           -1.08387483183292        1.96918423657061       -0.25578020001012
N           -0.00066511446256        2.39473863368712        0.33230187359887
C            1.16844739247005        1.99850425254364        0.65420623847431
C            1.88808702995742        0.90320519014457        0.11466690915003
C            3.25397440691453        0.84935443146289       -0.06674176084158
N            3.66720673274380       -0.36412691864497       -0.53458459421455
C            2.61850401900005       -1.13257225801125       -0.58178677310859
C            1.40141987615175       -0.44102165090943       -0.20519350796751
C            0.20294385471721       -1.07101197573264        0.02025748111515
C            0.08442459640921       -2.48378318634790        0.12322428193217
C           -1.21317285151802       -2.80935923681824        0.41951322036878
C           -2.00139328352053       -1.63117226631882        0.44062420564853
C           -1.19870146351597       -0.53962386416119        0.20264931002141
H           -1.64271318955148        2.75985819914382       -0.75030886355946
H            1.70598212105847        2.65770019473507        1.33144362619783
H            3.96621962842433        1.63933267494109        0.08326437481799
H            2.69024255671409       -2.14518133442175       -0.93035635234115
H            0.90691305473683       -3.16913964322243        0.06312130457277
H           -1.58757091046595       -3.79885804916763        0.61101077714042
H           -3.06236158780796       -1.60025950931632        0.60421878803832
