32
 energy: -59.130382624391 gnorm: 0.000585937374 xtb: 6.6.1 (8d0f1dd)
N           -1.19941606020771       -3.98885275045384        2.00347326385916
C           -1.15368808838064       -3.05658047345753        1.33614622286982
C           -1.07654496776724       -1.89916826080572        0.52134046683127
C           -2.18843472237271       -1.14123676227322        0.43771616112003
C           -2.42023336935279        0.03921111095762       -0.37248597665527
C           -3.66607962530841        0.04660930748254       -1.03087436642371
N           -4.67412047161545        0.07191973394304       -1.58340171768749
C           -1.62694545750499        1.14512176381502       -0.49532940712747
N           -2.07670234137890        2.23518862581295       -1.21083989354305
C           -0.37634742148784        1.38090329131392        0.21438464651629
C           -0.05768518358080        2.63438177376679        0.79586421253502
N           -0.86600126720858        3.68252865263101        0.95650171497554
N            1.23564096930053        2.70177149382010        1.22491943877346
C            1.80040879095523        1.57169136945695        0.87298975590365
N            3.02263706294732        1.23881731646357        1.25837359864302
C            0.82168763586288        0.65068642721829        0.20484357753941
C            1.08956945405130       -0.63815265440308       -0.22139582243246
C            2.33542269245741       -1.12683436385031       -0.78841112618402
C            3.43427294428816       -0.35406174251949       -1.15802980481802
N            4.35427099974189        0.27526579420678       -1.45081767148315
C            2.18034284969986       -2.46680044207989       -1.07486756491476
C            0.89868054504761       -2.87317735870391       -0.63152778820095
C            0.20905717313898       -1.77785948803387       -0.16122021086361
H           -3.07112629016597       -1.50632990937227        0.95412082919027
H           -1.37640824582079        2.85775473712663       -1.58190421980296
H           -2.87002754719970        2.07161475630453       -1.81435815267832
H           -0.50974712957326        4.49349240681564        1.43160800508857
H           -1.83942589343484        3.61543461542817        0.71183913262059
H            3.49852036771537        0.44947226795247        0.84993838347681
H            3.56329143718348        1.93434530103249        1.74698224449620
H            2.90882704401953       -3.09435002188392       -1.55394269052556
H            0.52563657755055       -3.88026342551098       -0.66593670609825
