29
 energy: -50.363778457758 gnorm: 0.000426363475 xtb: 6.6.1 (8d0f1dd)
N            4.70372243200472        1.22163288756289       -0.68766443987474
C            3.69632555037463        0.71185887927298       -0.45673630048576
C            2.51303875286746        0.02804440799544       -0.21013353618148
C            2.37679848244482       -1.40952769506534       -0.32110807844499
N            3.39809660748185       -2.21357645646461       -0.67203132262139
C            1.08571757362813       -1.77283053072512        0.00810305087287
C            0.32353935818730       -0.60055692636947        0.22417820883032
C           -1.04552071611816       -0.47967863118930        0.19783865109533
C           -1.94953426531001       -1.61066120409734        0.31294369120680
N           -1.62412010430294       -2.85951092064897        0.72958328973928
N           -3.19468791769048       -1.30412789179355        0.00250419165528
C           -3.18911960651838        0.00639201719317       -0.35501950672581
N           -4.35038996048198        0.55478958559117       -0.79387031142221
C           -1.92619541709991        0.61865686064708       -0.21066404093346
C           -1.75447541237357        1.97974219276802       -0.51878128765184
C           -0.83278755074212        2.92152132496643       -0.14493897534669
C            0.30510068682581        2.72362421703176        0.66918744176848
N            1.12397951935979        1.74373081783956        0.69130407871767
C            1.28781719653497        0.54497112096457        0.19253721150597
H            3.24639346441651       -3.19751246223795       -0.80320466347592
H            4.25272111256413       -1.80449375081306       -1.00828269651715
H            0.70250230126139       -2.77078567195303       -0.07343282743308
H           -2.41582465335742       -3.45163916569249        0.92681625367770
H           -0.82851350608122       -2.95320887880343        1.33909159823451
H           -4.47277280989468        1.55112198660776       -0.75023399012631
H           -5.16929122861443       -0.01305718626545       -0.65617720332071
H           -2.60686593627653        2.39377766638120       -1.05021248864237
H           -1.07839009095169        3.95446559172892       -0.35393285765885
H            0.57497670965130        3.53979753927366        1.33805702786459
