27
 energy: -42.111194304651 gnorm: 0.000666946230 xtb: 6.6.1 (8d0f1dd)
N           -0.53367796397246        3.63130769644129        0.54939754230878
C           -0.31027819493173        2.30964158283774        0.25775101498156
C           -1.48387522047525        1.52475813212360        0.30374493056922
C           -1.79620459927434        0.21926717445426        0.04721674198010
N           -3.12442530521443       -0.06747508163360       -0.03480843558772
C           -3.22338441286160       -1.37271975279623       -0.22464176337562
C           -1.98450730905863       -2.02273981670417       -0.22018121857113
C           -1.01109743171142       -1.04138401583438       -0.06289540185450
C            0.35114538968079       -1.29979065080242        0.13370694960722
C            0.80661050642524       -2.59150473735685        0.45218783996371
C            2.18808894585461       -2.59116884833355        0.51347305457678
C            2.64427048629297       -1.31918998056148        0.17209554121248
C            1.54857429879705       -0.47088916001864       -0.04175115402038
C            1.73513804582115        0.87309739784908       -0.43808918494302
N            2.95776331322360        1.13960552531796       -0.98621221337751
C            0.96619002137742        2.02038845283327       -0.20428453590902
H            0.24113303780589        4.26117397146885        0.65337423977219
H           -1.41095254182358        3.90109911457240        0.95590313066869
H           -2.38033736647398        2.10621937410556        0.49982273088808
H           -4.18939625172732       -1.82802719860098       -0.36515270577376
H           -1.82903470711757       -3.07433182810349       -0.35754548766856
H            0.17325998722159       -3.43123397003021        0.66434987675852
H            2.81090117166824       -3.42649089028525        0.77981954482635
H            3.67974363810200       -1.02738994459344        0.17812308594930
H            3.16946116603649        2.06299437709425       -1.31895644930326
H            3.52190197214625        0.37816820300800       -1.31516018141600
H            1.54122867418857        2.92707491624890       -0.38568743866259
