28
 energy: -50.656848504733 gnorm: 0.000928860739 xtb: 6.6.1 (8d0f1dd)
N           -3.59498775678179        2.79799392515772       -0.77227592765724
C           -2.61902824217355        2.26194284686124       -0.48742483217601
C           -1.41808597025119        1.60670708866065       -0.13931990733080
C           -0.28564336914090        2.39968882748061       -0.20884575720743
N            0.90257728470578        2.25926360325235        0.32400747502466
C            1.75198663243716        1.31496631730106        0.56574081115662
N            2.78679930863291        1.65034859205501        1.38254378140230
C            1.81658929536277        0.02459676869470       -0.05550084562829
C            2.97931918173671       -0.67886082743604       -0.35740529089858
N            4.27835936075289       -0.25347069960207       -0.30332628769112
N            2.71624965467953       -1.97392657956723       -0.73536024592988
C            1.42966295428733       -2.13909383501033       -0.61857677724704
C            0.74655623710765       -0.93344727055484       -0.22216126610787
C           -0.60879101319663       -0.91291743455467        0.02541065104930
N           -1.27358977660554       -2.08694071495948        0.12526398362578
C           -2.54891314916403       -1.79519704975303        0.35395439632570
N           -3.46689675034293       -2.74678869154302        0.55786847137208
C           -2.78951417303858       -0.38236424807168        0.36414144491345
C           -1.57621981475753        0.21975828521180        0.16294334114389
H           -0.43213423107953        3.39017768773208       -0.63785738957048
H            2.70745809063177        2.50373113318332        1.90979828435760
H            3.39089152783262        0.92427631802928        1.72528461639639
H            4.43734767967387        0.73516761395679       -0.42124231263528
H            4.91849963112246       -0.85662412874902       -0.79684362844887
H            0.94740626407459       -3.06845170180078       -0.85025930397081
H           -4.43125662364762       -2.50746853763905        0.69967383415377
H           -3.18687725217293       -3.71002546547412        0.50216852439121
H           -3.74414540768516        0.08957921943738        0.49126827818713
