30
 energy: -54.098288156171 gnorm: 0.000737019326 xtb: 6.6.1 (8d0f1dd)
N           -3.46721039297651       -2.69161490309105       -0.31644871203701
C           -2.87756176798588       -1.70651092299572       -0.21326390653714
C           -2.27801681805392       -0.46269157914452       -0.07402884033617
C           -3.01705795318547        0.70520981341295        0.30073889525940
N           -4.32611397990538        0.73619621081115        0.55679626807759
N           -2.25490424325157        1.80253420122430        0.38740369762406
C           -1.01211327193631        1.42823004216631        0.06022214810421
N           -0.12295583360989        2.31583958936087       -0.22723150159245
C            1.16974038976668        2.46815109083551       -0.30616911694121
N            1.56661766646644        3.52311254935756       -1.05846900435768
C            2.15495292850565        1.80227437909875        0.46278390402426
C            2.29229537982925        0.44991009035435        0.70512097135870
N            3.37062454090632        0.07909844381234        1.46009337644978
C            1.58869473326311       -0.63964759781497        0.09371781308230
C            2.18714340910077       -1.87956450027795       -0.15888671789205
N            3.49907541121226       -2.27285342512604        0.02432715376970
N            1.30958977318764       -2.79312899173899       -0.66035107152436
C            0.13594884895335       -2.21217266889942       -0.68121766648051
C            0.19244734020132       -0.84677943337255       -0.26607783466446
C           -0.93719387091000       -0.05893374407222       -0.14865031318888
H           -4.74707576993695        1.60146701443519        0.84514449827544
H           -4.88224739504897       -0.09473479687217        0.45448656593283
H            2.53592084553337        3.76727806225505       -1.13786425304498
H            0.86971992594841        4.07645156352437       -1.52495273781268
H            2.96395617624803        2.43042850454840        0.81718641246287
H            3.41492136278411       -0.87123043817289        1.78642611582619
H            3.82569283406176        0.78213760119081        2.01667613787375
H            3.67700277690099       -3.15532761062070       -0.43523446263253
H            4.19526423863356       -1.56853850568714       -0.17603745873787
H           -0.73514425991045       -2.72867040150177       -1.03754556005198
