31
 energy: -49.793813263942 gnorm: 0.000817339496 xtb: 6.6.1 (8d0f1dd)
N           -5.04165478945008        0.35017615187728        0.35909232960045
C           -4.03150643980114       -0.18118314371537        0.19733732477411
C           -2.79983331024035       -0.80059499332756        0.01521695589572
C           -2.59538644320830       -2.15917380702837       -0.31669627238680
C           -1.24685370261276       -2.39968270219216       -0.39686893058949
C           -0.52784161285115       -1.20061986020972       -0.16150599546362
C            0.84046136846306       -1.17291106902419        0.02743296585206
C            1.56163490450501       -2.37392308100910        0.31852127836859
C            2.87811381239043       -2.07684362698178        0.50620077801555
C            3.07066361999398       -0.68931718108843        0.25983483734188
N            4.32145557953927       -0.08934578794136        0.31924006141473
C            1.83917096759753       -0.09960688030642       -0.02763002958656
C            1.72688604058757        1.23467455390663       -0.52453199865490
N            2.86159889919703        1.69704214069982       -1.14617066962400
C            0.73326608324303        2.18284310653845       -0.35614731015877
C           -0.53368235713879        2.20272561326259        0.24917880295123
N           -0.96225572412399        3.44588749632330        0.63642753935037
C           -1.48116456945864        1.18882305058226        0.42109384144154
C           -1.54782879850027       -0.14785486081639        0.07227974211991
H           -3.38380508962785       -2.87276933960727       -0.48008171469866
H           -0.80127855150729       -3.34298267611145       -0.64722960200645
H            1.11013981520273       -3.33537821762919        0.46290406042596
H            3.65906199948520       -2.75690859180392        0.79643674781521
H            4.99500107948405       -0.62795618097785        0.84476560837586
H            4.31448250144770        0.88616032323955        0.57878091029175
H            3.51029730213326        1.01540588754717       -1.50069159753828
H            2.80875619570697        2.57140621646103       -1.64090186216927
H            1.04001408711678        3.16950556399750       -0.69739094767310
H           -0.43237808715280        4.25858477128825        0.37509860589186
H           -1.93438799478643        3.58289070319160        0.85272440036979
H           -2.43540996133133        1.56585051805386        0.78269794775444
