26
 energy: -47.212876097287 gnorm: 0.000627404331 xtb: 6.6.1 (8d0f1dd)
N           -4.04348784452026       -0.88375818863071        0.49503401602721
C           -2.91800026612045       -1.05618596733275        0.31000159249710
C           -1.57769845813006       -1.34567575910489        0.08983038066923
C           -1.16808364840462       -2.60607981818915       -0.39359411581297
N            0.13153045639674       -2.71483995219844       -0.59842461428504
C            0.67418661299629       -1.53753998628604       -0.24549605037384
N            1.93052777269971       -1.44812469545338        0.00134386165283
C            2.75414933453126       -0.44663043309698        0.25965666812470
N            3.64252223006732       -0.63979984667491        1.25505314302078
N            2.93364161041708        0.60701811743177       -0.51717681135121
C            2.03081593033616        1.41219039982032       -1.00723807043464
C            0.72326739614099        1.65370141353105       -0.59742521255755
C            0.12620169693722        2.90066509555551       -0.82614598356129
C           -1.08055459834222        2.99169398190100       -0.14643327736479
C           -1.34351211200109        1.76953025789744        0.47180677569848
N           -2.34886101979044        1.54916958135803        1.34601533976335
C           -0.28509539941143        0.84443326775045        0.13654533233666
C           -0.41654474803506       -0.52560300477145        0.09146409124551
H           -1.82573975239827       -3.43318066859680       -0.60005979720906
H            3.69369218506621       -1.54520296278311        1.68906811596400
H            4.42533276296579       -0.01342048660969        1.32658336647096
H            2.43929324994567        2.12517168308305       -1.71875200101217
H            0.58366211826146        3.69262254358662       -1.39116656902390
H           -1.71062996377652        3.85974056551573       -0.08770620950580
H           -3.12515118140161        2.19037107264089        1.33301767457008
H           -2.56782955803016        0.60820075095658        1.62955735655096
