29
 energy: -55.178933480006 gnorm: 0.000898794899 xtb: 6.6.1 (8d0f1dd)
N            1.07856167327953        3.98061776086158        0.88790735528072
C            1.46812398709355        2.93678750277015        0.59064345586422
C            1.97642661419488        1.69419677159205        0.23212067572989
C            3.31632944099249        1.34533099420614        0.38241803923039
N            3.58483787858061        0.08074595565929        0.01956177794718
C            2.43785611137216       -0.47202654803846       -0.33366730840316
N            2.38959049903470       -1.58153572957630       -1.04642467860548
C            1.59134025486823       -2.58038143376323       -1.06626747553723
N            0.81453144416502       -2.99646180123653       -0.07376481834402
C           -0.07261379962905       -2.32239035134188        0.57721738502805
N           -0.62703759976856       -2.91231122483301        1.66191375303882
C           -0.68888274652052       -1.07710191227007        0.13003085763738
C           -2.06398733364374       -0.86575211941172        0.16903040525793
N           -3.03564955560838       -1.75065367182473        0.50060654820639
C           -2.34050563055205        0.50203124051796       -0.18544910274403
C           -3.61812743060609        1.03489315393502       -0.33407501184101
N           -4.68612979555729        1.44732227827737       -0.45147028457809
C           -1.13331081694057        1.15629810435588       -0.36582717924141
N           -0.98992672947806        2.39621273501668       -0.85608624180267
C           -0.04525071430678        0.18270507425920       -0.16739743351945
C            1.29695182993834        0.48687245858516       -0.14767098774855
H            4.10101349267884        1.98180672399483        0.75120627007790
H            1.69111403106883       -3.26184462209737       -1.90683958361558
H           -0.16910952358949       -3.72758213607933        2.03461377697024
H           -1.23236105361464       -2.38149692500299        2.26345878692859
H           -2.81961567577974       -2.73358206364746        0.48128692048502
H           -3.98533344992228       -1.48662806165185        0.29204039809390
H           -1.81643417474498        2.96733600904608       -0.93321905249316
H           -0.10635540480526        2.87630726629807       -0.79130242520315
