28
 energy: -46.639358031423 gnorm: 0.000984053352 xtb: 6.6.1 (8d0f1dd)
N            4.22931683337275       -2.19248204849271       -0.08316808583630
C            3.20268323309324       -1.68174764962440        0.01904763150417
C            1.95439823076467       -1.04477491662903        0.14278126894412
C            1.01329829658133       -1.76488637829210        0.91203425321374
N           -0.26214692882434       -1.84551756700206        0.78365572272360
C           -1.24877686517547       -1.17272061850712        0.24845681287194
C           -2.45178125104977       -1.75522358257602       -0.11064026762196
C           -3.40070049455887       -0.72952700614112       -0.29840341433269
N           -4.68315035255312       -0.91149633543857       -0.65538203196913
C           -2.79010019725192        0.52049008765564       -0.06464547288459
C           -1.44354794392838        0.32306333362507        0.18709409449839
C           -0.46879954437507        1.31834466586198        0.25237404714282
C           -0.80090557433275        2.68341849463122        0.42648013343798
C            0.33136803770441        3.45127663306054        0.28000411798495
C            1.39120424202120        2.60908257749733       -0.07763727312979
C            0.95583550879710        1.28071248625598       -0.07351248022613
C            1.84472176177404        0.23208718641452       -0.44944253735990
N            2.81513821650094        0.57037004384827       -1.33056583026088
H            1.42936128358529       -2.50008853420291        1.59976936354009
H           -2.63875557360513       -2.80865102783556       -0.18782389913364
H           -5.30950639807759       -0.12913122451078       -0.71984103369634
H           -5.03746071434975       -1.83494540491357       -0.82831288958492
H           -3.28863154181177        1.46621316390102       -0.15391694480321
H           -1.77648922946034        3.04060019351218        0.69553139889519
H            0.40317119432205        4.51508294641631        0.41800383453901
H            2.40306837493808        2.94260024453764       -0.23162169876123
H            3.60075097824470       -0.04397839086402       -1.47333119966340
H            2.87794255525488        1.51898740001171       -1.65514620713121
