26
 energy: -47.994848561692 gnorm: 0.000446707196 xtb: 6.6.1 (8d0f1dd)
N           -5.51323395766106        0.89844622222104       -0.49979080820362
C           -4.40272654789278        0.65898223136025       -0.33554786398415
C           -3.05389675046950        0.33896964450856       -0.12909178134185
C           -2.55667389887803       -0.97052388492596        0.04527343037209
C           -1.16953464464950       -0.92640769107738        0.16928691733704
C           -0.41424985619165       -2.10173649691566        0.40435157322253
N           -1.10454879441706       -3.14499732058475        0.91346173598727
C            0.91847688966314       -2.42311731592972        0.04658691819514
C            2.04675938316998       -1.74515619571222       -0.33139795113409
C            2.46249046118428       -0.40291611224899       -0.29729983775875
C            3.82718942475592       -0.22990674677216       -0.66090153136781
N            4.92583119479249       -0.15372561202687       -0.97767621410335
C            1.83609251225947        0.77722717309989        0.08311040335030
N            2.56679074056727        1.89713107202977        0.20547241435200
C            1.68825868995524        2.86019025690867        0.45463613382794
N            0.40615334717312        2.49822763887704        0.45530964583543
C            0.40663345880040        1.17439121952876        0.25396141539477
C           -0.79819049693183        0.49650045279815        0.09925884736064
C           -1.98834370755343        1.22823171645733       -0.05548223741710
H           -3.17813779493621       -1.84666102867689       -0.00389391948995
H           -2.05597245995901       -3.03032606600166        1.21325186776719
H           -0.66868822177077       -4.04317150767760        1.03260374795128
H            1.07063797962591       -3.49934422206756        0.05726570446020
H            2.85268318789030       -2.40271725601947       -0.64559596321940
H            1.99253132373746        3.87374553249394        0.64062435237853
H           -2.03180061196487        2.29690101505399       -0.12611864707245
