31
 energy: -53.824991604206 gnorm: 0.000530125073 xtb: 6.6.1 (8d0f1dd)
N            4.88944389689952       -1.45695068159273       -0.12672980122301
C            3.86913986848103       -0.92149062613594       -0.09676440183121
C            2.67365012528309       -0.21813251568975       -0.08382835158833
C            1.37357944630850       -0.69431675538374        0.10555296500265
C            1.13671819431336       -1.99838050832662        0.56608744414146
C           -0.04079739998862       -2.68434120766663        0.75450435815555
N           -1.21421163946435       -2.53504078375978        0.19341883854584
C           -1.95897339521997       -1.58976725983007       -0.28410043151055
N           -2.99034886810127       -2.03662520850077       -1.07639656271604
C           -1.97233807471900       -0.20592175974134        0.06322202827230
C           -3.13310989489874        0.57327600251778        0.11745412883711
N           -4.42552480901206        0.12911289382590        0.01705923134350
C           -2.78748958629329        1.93790750923196        0.27479186258490
C           -1.41990353296066        2.04649682722383        0.24996368355510
N           -0.67533729221882        3.15878761535068        0.39696359673426
C           -0.83747990300973        0.70129553879127        0.14355526464823
C            0.51676134701697        0.51312760032754        0.01175412873545
N            1.32383022712100        1.61475918089458       -0.19668095712443
C            2.56843443923037        1.20151275095722       -0.28199462213768
N            3.61140217665008        2.02762268830673       -0.48906138833032
H            2.03400130654349       -2.52157971606775        0.87664262423854
H            0.02235714357095       -3.60080179511648        1.33812777467967
H           -2.89508671931702       -2.98085998166432       -1.41562951986450
H           -3.41864601818206       -1.37231459757413       -1.69904726111638
H           -4.57641335544967       -0.84920884720555        0.20905101639596
H           -5.12675272572284        0.74927128626974        0.39065850539937
H           -3.49046360867151        2.74478020684257        0.36907093269948
H           -1.12081064766646        4.05639028749734        0.32495245908290
H            0.31079187788100        3.02372239819881        0.17392334694260
H            3.43515920525724        2.98518019810072       -0.73496886286530
H            4.51796051903196        1.63380404552431       -0.66947315448406
