28
 energy: -51.435770020305 gnorm: 0.000744294227 xtb: 6.6.1 (8d0f1dd)
N           -5.55224134370369        0.18619738805644       -0.51796976460423
C           -4.45105627296088        0.47771486126173       -0.36478835870131
C           -3.11517496934381        0.84026891124017       -0.20396803368597
C           -2.56273716871896        2.13725409786923       -0.35020162724672
N           -1.26704068938125        2.18677756237917       -0.12346503489266
C           -0.85453130770149        0.92099531308309        0.12371032119086
C            0.47315798270801        0.57583412049225        0.07312838998887
C            1.45807679947799        1.61564641167171        0.07057885399045
C            2.69848387902397        1.04137601028975        0.06061957179399
C            3.94849525565821        1.66204326276181        0.14942177353138
N            5.00308299024096        2.11077870512066        0.23109206382975
C            2.53795052941420       -0.39591821038525       -0.04042611054788
N            3.62198701229652       -1.22869423090212       -0.11580032640217
C            1.18059811994302       -0.70056105580907       -0.04959301813608
C            0.70179309897903       -2.03631017922174       -0.31945593777927
N            1.56970433947725       -2.80833240845388       -1.04245572062775
C           -0.37655211016235       -2.70450520121850        0.23367467432084
C           -1.47074424406634       -2.21713613654433        0.96385751713396
N           -2.15213241445076       -1.14658553806354        0.76256997703232
C           -2.05115870530956        0.02404431296377        0.21883165882535
H           -3.11027025956129        3.02777379836908       -0.60498571662183
H            1.21308113931521        2.65705315856642        0.13700704612327
H            3.49580888099077       -2.18164525646920        0.18812012956429
H            4.50236437046118       -0.80886552260277        0.14383152928502
H            1.24613145591718       -3.70776148784678       -1.35733724218852
H            2.26011159412564       -2.35027379551269       -1.61238393652115
H           -0.34666852172688       -3.78391771555806        0.13245439932422
H           -1.92702150504909       -2.89531524854170        1.68131083231786
