27
 energy: -50.946069276699 gnorm: 0.000565822308 xtb: 6.6.1 (8d0f1dd)
N            2.72629015082245       -2.93274634555921       -0.39161009227382
C            2.27442197599557       -1.87379960180584       -0.27441640588937
C            1.88362023740221       -0.55754467318589       -0.11791204333158
C            2.82321632161092        0.39571817244791        0.38827333583147
N            4.07644467963030        0.12054558722019        0.75121625861917
N            2.32353880742997        1.63333887699071        0.49034968107761
C            1.07945826405058        1.57839351103533        0.01772902491140
N            0.45675791625737        2.63502986060142       -0.36674123648011
C           -0.74777847982135        2.97388496483353       -0.71181894075798
N           -1.86193197243569        2.74502324152343       -0.07742273171605
C           -2.26009609143425        1.62462274590167        0.47796059199041
C           -1.88077633605556        0.32296430286265        0.19867381268970
C           -2.78241726981982       -0.76797836601009        0.37855811824700
N           -4.04930969919295       -0.71753600525268        0.82698990447329
N           -2.28858975562285       -1.93267271603805       -0.06484425111138
C           -1.04129243743648       -1.69586335811234       -0.47750328537436
N           -0.35274945301248       -2.67856495471491       -1.06598840481566
C           -0.64370445484292       -0.31354110716810       -0.31007447879688
C            0.65733498460807        0.13781066953636       -0.25543937430436
H            4.45550795072062       -0.80124417524980        0.61708614686811
H            4.64922348271766        0.86252699643979        1.11280000712473
H           -0.80684664612730        3.70923201791788       -1.51293399834023
H           -3.14895921843416        1.75416817204525        1.09135971869402
H           -4.39283945403850        0.09234427760969        1.31029419886939
H           -4.52405340349899       -1.59516031811796        0.94586356972891
H            0.63452375256249       -2.59728520150222       -1.24499836573971
H           -0.75136325333375       -3.60086940544963       -1.00897321859163
