28
 energy: -51.449018892324 gnorm: 0.000730743054 xtb: 6.6.1 (8d0f1dd)
N            4.70857462744003       -0.67348840445980       -1.18115322869105
C            3.73626718553513       -0.16197724153373       -0.83860261897672
C            2.53815219455482        0.41392548950558       -0.42236047339161
C            2.31948075824614        1.70581212634348       -0.02671359843293
C            0.95730643777751        1.85864010032722        0.36247983922946
C            0.48866036822389        3.09368807097566        0.81562097875542
N            0.19345014963688        4.13552781569131        1.20423263467461
C            0.27214080169313        0.64393172561283        0.19924192278434
C           -1.12351510022853        0.49594606445527        0.21646668350167
C           -2.01490598193449        1.57269699771238        0.34627198823825
N           -3.27675631404791        1.26869114920889        0.02723775631889
C           -3.28517566692987       -0.00753384312836       -0.35568990205915
N           -4.44200857374329       -0.61837108771678       -0.68495406301201
C           -1.98389574195242       -0.61294558303241       -0.23240581440209
C           -1.77025082384194       -1.95166277030618       -0.41531113796209
N           -0.85152996912637       -2.72636226398265        0.12567133581830
C            0.38488698352034       -2.60571232881748        0.44606709799762
N            0.89424843425232       -3.48832277874089        1.32645671562414
C            1.36761965615732       -1.69005099653269       -0.12954252158776
C            1.31182317409198       -0.34605662986839       -0.18741823403778
H            3.04455075008789        2.50004506152642       -0.01432233238201
H           -1.77840350284528        2.57824881178763        0.63502115893002
H           -5.24565836414987       -0.01936729792772       -0.77201719851343
H           -4.43115404928859       -1.47307962014094       -1.21310231895356
H           -2.54740896588619       -2.52644552326684       -0.91438374863043
H            0.27902965593097       -4.13601208832808        1.78796493056762
H            1.87247232873863       -3.48707590115135        1.55370551008538
H            2.31602946344460       -2.15223152825650       -0.38416674619894
