26
 energy: -43.200069845484 gnorm: 0.000520042786 xtb: 6.6.1 (8d0f1dd)
N            4.27502447259067       -0.84979085098073       -0.14785292871619
C            3.13485138764865       -0.99815070317628       -0.09379904796625
C            1.77428698351548       -1.29701672930557       -0.03594691490500
C            1.31734827481909       -2.63910708778418       -0.01788627379679
N            0.01336701344496       -2.73048100733817        0.02209978730449
C           -0.49139617464928       -1.45602247257539        0.01853387493358
C           -1.85697527587935       -1.41744904725305        0.04547777160944
C           -2.88337416998275       -0.44497667010317        0.00555348479882
N           -4.13504978632300       -0.98139125651672        0.02921910974796
C           -2.83512757223942        0.94605956789221       -0.06944085551237
C           -1.82730331601131        1.89626601983672       -0.07778080196882
C           -0.44634968555785        1.92734961193902       -0.01989435360468
C            0.19126571090942        3.18517243908816        0.00527625274334
C            1.56175785923767        3.01347499965078        0.07500841704953
C            1.83867458970558        1.64699961767757        0.08049976050431
C            0.64655561778171        0.91831093052956        0.02156357557530
C            0.62868587451215       -0.47836829343342       -0.00896920426506
H            1.93996830551433       -3.51663908999915       -0.03540079865843
H           -2.24504737020415       -2.43232924618033        0.08609226621859
H           -4.94697443742114       -0.39110467653079        0.00954260607807
H           -4.26507383143166       -1.97488507306776        0.09261204460189
H           -3.82692094904102        1.38689465692784       -0.11577719834897
H           -2.23317895818769        2.90377461366858       -0.12704868748795
H           -0.32502929800764        4.12771307543572       -0.01645019540020
H            2.29699940078241        3.79626430584644        0.11769289904146
H            2.82300536995945        1.22524450525989        0.12822842172440
