28
 energy: -51.431661086701 gnorm: 0.000392865911 xtb: 6.6.1 (8d0f1dd)
N           -4.70419555098825        1.59040902312375       -0.45088795963659
C           -3.59293385387785        1.35376354829559       -0.27564935534130
C           -2.22558493147431        1.05849151018143       -0.05680307481850
C           -1.53876171574620        2.15005678484658        0.47213610850204
C           -0.20865222547829        2.49975038775397        0.62542881628595
C            0.99717473833536        1.90106602702043        0.28891866534967
N            2.08225805709283        2.68509576292001        0.29266294400840
C            3.13355316067692        1.93490504762776       -0.03236915593546
C            2.80494143375224        0.58414068373179       -0.18582814238265
C            3.71559257270720       -0.40772862270591       -0.55414753368038
N            4.50464188463661       -1.18099467545350       -0.87183260635323
C            1.39840187666997        0.49327765294869        0.00385628831126
C            0.68777692052482       -0.68086965553496        0.13464860388625
C            1.32813956217167       -1.93848380912669        0.36934858718036
N            0.47509496935356       -2.92481806316156        0.48663914749631
C           -0.76070187079202       -2.41598387716351        0.25456722023702
N           -1.83829803446455       -3.27164459882715        0.27609815142271
C           -0.73613147309975       -1.02278029940092        0.04998009129827
C           -1.87514703697694       -0.29609841869682       -0.35906790120518
N           -2.82315273774879       -1.00808597400365       -0.99672958499107
H           -2.21643221070841        2.95837364007174        0.73498955214132
H           -0.05033454804509        3.51019593839892        0.98481758637020
H            4.10707530791688        2.37623258579110       -0.15213699841883
H            2.37735022911742       -2.09813254968521        0.52452256588757
H           -2.68251829686901       -2.92354663196757        0.70861693551029
H           -1.56937781437851       -4.18840966275613        0.60746673388887
H           -3.68825241422607       -0.57589118547908       -1.27986413223638
H           -2.63944349487978       -1.96427080184705       -1.25522786807627
