24
 energy: -38.943467499027 gnorm: 0.000507162410 xtb: 6.6.1 (8d0f1dd)
N           -3.85606791059246       -0.04892994555616        0.08149647854839
C           -2.56970239267331        0.39280878163116        0.02932315133129
N           -2.35566925784538        1.74776208757742        0.02617636469939
C           -1.06894843417639        1.93589619764620        0.02592902731016
C           -0.32552857723670        0.69907692925335        0.02273208743704
C            1.03500150417399        0.70925192743644        0.01204216485049
N            1.66391001957922        1.93656475533494        0.01775514371088
C            2.94872864297121        1.70652353686154       -0.00858750371548
C            3.26404527118960        0.32355377773329       -0.03537092772558
C            2.06833950557148       -0.36444532277136       -0.01986680146047
C            2.01560390185929       -1.77086091651195       -0.03600275463204
C            1.02075394133810       -2.71414305612155       -0.00313997639026
C           -0.38451979733786       -2.70891328886669        0.04673770525893
C           -1.35744423250831       -1.73676670027345        0.05994242382383
C           -1.37562171786584       -0.34034290178304        0.03125834061193
H           -4.54883354162323        0.65745016034363       -0.10502482358413
H           -4.06453422517793       -0.97799051775060       -0.24269171087102
H           -0.62894169222420        2.91362176003971        0.01841862806032
H            3.65116476634548        2.52264710350645       -0.00753019479593
H            4.25114817899674       -0.09681345602426       -0.06005585984747
H            3.01476198385205       -2.19579019034675       -0.07459107346844
H            1.41211121109565       -3.72732903864093       -0.01777446307718
H           -0.79224130691792       -3.71400305942279        0.07544263947381
H           -2.36129734189334       -2.15127684839476        0.10445940275157
