31
 energy: -59.417694874514 gnorm: 0.000649736720 xtb: 6.6.1 (8d0f1dd)
N            3.24245061017999        2.56030375722462        1.63026418173095
C            2.36295766776407        2.24433536686353        0.96353417805586
C            1.24376432285478        1.86151848645531        0.19240746669486
C            0.33789931072952        2.83171410703919       -0.12140531603117
N           -0.62736722795666        2.78933114796106       -1.04046808748175
C           -1.65601649774930        2.06360450915963       -1.19554081365025
C           -2.10705193454772        0.99871091540887       -0.35571428162950
C           -3.45802346510867        0.63920384154326       -0.16201660828915
N           -4.54419745858352        1.31410923030493       -0.55587153449648
N           -3.59736527477269       -0.50617437366382        0.55929307132938
C           -2.38162600047910       -0.97193088962769        0.74992629306176
N           -2.15419058471871       -1.98743021641596        1.58005414111455
C           -1.34142603144674       -0.09406704317866        0.15223141195249
C           -0.00705238197157       -0.42704270173942       -0.00736723151266
C            0.50113052064496       -1.77940456086328       -0.10432530750622
C           -0.21374721525170       -2.96566027076005       -0.23246748072642
N           -0.74180591261859       -3.98514702574906       -0.33906825182181
C            1.88052290845952       -1.73324493719403       -0.28310830979758
N            2.72565032035488       -2.76350112425541       -0.46167077257773
C            2.28100025870553       -0.34820130472675       -0.23492963084843
C            3.61315744338775        0.04558365199196       -0.38501046748638
N            4.72491401851378        0.27282571593526       -0.56693841809288
C            1.15451065835810        0.44810611458316       -0.10960149142680
H            0.49965495206466        3.82919665279552        0.27757559214793
H           -2.27022934900113        2.30770337519876       -2.06098212326120
H           -5.44725916071709        0.92670259058848       -0.34853572785945
H           -4.46706548644709        2.16550817321419       -1.08152673058203
H           -1.25339725379435       -2.43225005680094        1.62771671959675
H           -2.95793403072481       -2.48784577436466        1.92178256138383
H            2.36435221117378       -3.69488462459520       -0.57489168929068
H            3.69185841059800       -2.58140184043227       -0.67241949590017
