33
 energy: -62.867263519015 gnorm: 0.000634824709 xtb: 6.6.1 (8d0f1dd)
N            3.82817927944965        3.04151569285675       -1.01358801723581
C            3.03323770250710        2.29014586964902       -0.65146392048609
C            2.07641663227798        1.37507593997178       -0.19514167121424
C            1.09042904082332        1.91889766171472        0.71492207730392
N            1.52524181919978        2.80717063332582        1.63346859733920
N           -0.18395428669626        1.73500090198811        0.63802022309050
C           -1.06347790308235        0.89497421993183        0.17393021791899
C           -2.36977623042312        1.25847225977066       -0.17875475518819
C           -2.86942273101925        2.54707410399674       -0.35018460822314
N           -3.32315063933304        3.59358741091294       -0.49993399854503
C           -3.15082786247881        0.07027398037813       -0.27460986776691
N           -4.44941161220889        0.02248155230412       -0.57963292342973
C           -2.32423029221864       -1.04702110499927        0.00186785117377
C           -2.81448364684109       -2.34978093008985       -0.04343991034861
N           -3.30988070868658       -3.38805043108938       -0.09449409899677
C           -1.00157678315151       -0.59240204063891        0.20085997023081
C            0.13962850029532       -1.36227213608954        0.30619333603441
C            0.11502281121817       -2.75706336424950        0.65841007884123
N            1.30582864002418       -3.28489146266754        0.68860891684546
C            2.17645301223733       -2.31501262903574        0.27152719479233
N            3.49946714278173       -2.64518498786243        0.14446817919087
C            1.53888278905077       -1.08876446399696        0.04290665162477
C            2.22447522354977        0.03213469417023       -0.53825506731705
N            3.23747782911978       -0.28625761851198       -1.37899734077565
H            0.84185298471154        3.33414194809326        2.15155431524197
H            2.46588199080566        3.15974968594683        1.57873801442286
H           -4.93006572439889       -0.86164410353687       -0.60129473355829
H           -4.95078421399217        0.86795918515868       -0.79432125809102
H           -0.75157118372839       -3.31649102125212        0.95404357133800
H            4.17579123407255       -1.91469508534159        0.30788866680361
H            3.71974601383413       -3.53157147307439        0.57392044932798
H            3.33832473104040       -1.23247274654942       -1.70145953269719
H            3.76604068735532        0.44539380761869       -1.82462389914647
