33
 energy: -53.239829115384 gnorm: 0.000962259567 xtb: 6.6.1 (8d0f1dd)
N           -4.74563594100921       -1.25488858343249        0.44275774592300
C           -3.79410611091972       -0.61579011318463        0.30486304663058
C           -2.67083329697635        0.17890213471208        0.13308946690636
C           -2.70306289008381        1.56647155237337       -0.16421632238689
N           -3.82867359854933        2.30271745508778       -0.28356506297259
C           -1.38794138416402        2.01887687672698       -0.27239221673987
C           -0.49671851462890        0.95859855811653       -0.07797724108245
C            0.87502428955933        1.15056049903681        0.09149659153763
C            1.38315473174418        2.43458832037717        0.40210117852271
C            2.74921662258309        2.37227100942290        0.53333497306514
C            3.16646803471734        1.06191316597416        0.23739942798844
N            4.50992015498246        0.67248581633937        0.24914765269645
C            2.03859080086259        0.26714580104554       -0.03320793237053
C            2.14918492992117       -1.05413310760382       -0.53874017197531
N            3.34942103064683       -1.33321045090189       -1.14053700280721
C            1.31407713065665       -2.16082645947636       -0.40751248599997
C            0.06581223465274       -2.41356853820274        0.16369157008348
N           -0.17040603254849       -3.73310467682158        0.46425810268097
C           -1.03608412511316       -1.57667075145479        0.39716519794245
C           -1.32268149950174       -0.25434475766889        0.13946944344982
H           -4.72047889323616        1.83889018236663       -0.28439601789412
H           -3.77413202645633        3.24698141751130       -0.62090311125683
H           -1.11609699159286        3.03311122353961       -0.49217522416712
H            0.78332845622194        3.30324958481328        0.59196525745641
H            3.40433274720285        3.17618538029377        0.81955001416802
H            5.08828492593861        1.33999743619894        0.74217481076631
H            4.66154143160802       -0.26850834359751        0.58775636518853
H            3.45414797376278       -2.20570869185234       -1.62876284922366
H            3.91550169893364       -0.55994080570968       -1.44527501541551
H            1.79651971574511       -3.07411290313253       -0.75175117760428
H           -1.11549732583637       -4.02978683965039        0.63583868063686
H            0.47025895964765       -4.43514573774594        0.13649003925994
H           -1.91460332987127       -2.13011415910045        0.72240544029218
