27
 energy: -51.729235599331 gnorm: 0.000504282983 xtb: 6.6.1 (8d0f1dd)
N           -4.92772380811513        2.02468076718740        0.15868310827561
C           -3.83834509278557        1.67319185457249        0.06571670095135
C           -2.50563913121141        1.22165244679914       -0.02903244184276
C           -1.57940409206165        2.11337766397022       -0.59451553286897
N           -0.31971358288250        2.19667059609442       -0.35509977399267
C            0.74619554276272        1.56653363108260       -0.03268206221323
N            1.83126212784181        2.20942839854817        0.41466768054204
C            2.85512729652254        1.35819019996463        0.29121161628345
N            4.09935995891275        1.70797904795283        0.60035545967223
C            2.45160006285226        0.05904015985519       -0.17855695438425
C            3.35491895404392       -0.98158913549227       -0.35447874420215
N            4.17329118995917       -1.78098504505385       -0.48698268723122
C            1.06018394466302        0.11126372852625       -0.29700143391902
C            0.15173992030368       -0.93604253690435       -0.32212203551884
C            0.55766143824153       -2.28422520609025       -0.43570757128187
N           -0.42022930106826       -3.15219352314504       -0.22459525092763
C           -1.51512224736113       -2.43722676275360        0.08366272609805
N           -2.65959913636260       -3.07899303577354        0.35964959632929
C           -1.27948724832803       -1.01770404845297        0.02855743687824
C           -2.30355843038425       -0.13293925614253        0.28141877327357
H           -1.97114171579448        2.91378464976481       -1.21929559547555
H            4.27103282788173        2.63243183977487        0.95697449508305
H            4.85996100433912        1.06504428389653        0.45747924703148
H            1.54634007752827       -2.63148410061580       -0.67143264638418
H           -2.65560072468126       -4.08104781141261        0.28908719078980
H           -3.51788681598904       -2.59707396990601        0.55418695906763
H           -3.21214676972602       -0.60421369864732        0.64878597956811
