24
 energy: -44.537924348893 gnorm: 0.000771276509 xtb: 6.6.1 (8d0f1dd)
N           -5.23632399493098       -0.09769535426019        0.07280024630390
C           -4.09399999598173       -0.18055461880085        0.04631750463081
C           -2.67252107487418       -0.27264508607564        0.01945140569269
C           -2.20692937854041       -1.56926420346855       -0.04650126408591
C           -0.93718931470529       -2.16138897479432       -0.06657510153243
C            0.36612464088954       -1.73345732246843       -0.02986954939734
N            1.28380843892761       -2.74319525834760       -0.01975626453069
C            2.47366993716680       -2.20400081681328        0.02658880388738
C            2.43020916979674       -0.78014545973576        0.03561149035485
C            3.59217445072889       -0.00615036901235        0.09531924929340
N            4.59256526416544        0.55589165162490        0.15003555592052
C            1.07881759507985       -0.41979806199843       -0.00152582840199
C            0.59797902414715        0.89536825314916       -0.03471585978474
C            1.41800801038474        2.01651121982079       -0.10266231601144
N            0.72845649599131        3.17952982439926       -0.09754556970552
C           -0.54062268396689        2.88201005158428       -0.00811326875374
C           -0.77811733490808        1.46655365625013        0.01913238269585
C           -2.05810606796659        1.00764896627034        0.05715978878223
H           -3.00850280065518       -2.30210918891953       -0.07705107096496
H           -0.97016072209520       -3.24579604999458       -0.10317394311939
H            3.36356903922374       -2.80750487724698        0.05510269513946
H            2.48845291671041        2.04213827590149       -0.16554941865808
H           -1.29639548438409        3.64559930540964        0.01605764309622
H           -2.79394841860215        1.80794721652479        0.10741957715091
