29
 energy: -51.179306802764 gnorm: 0.000854671455 xtb: 6.6.1 (8d0f1dd)
N           -4.49881500168335       -2.61777529363726        0.55604913124433
C           -3.60900169642900       -1.90693921147022        0.40223174989710
C           -2.54527820876107       -1.01800386982529        0.21809113968273
C           -2.68405842082130        0.34165594342432       -0.17640752328307
C           -1.43386170468941        0.91797541927014       -0.18834201741279
C           -1.16657451115304        2.26026917702866       -0.62798242061143
N           -1.83632999682572        2.70202373931611       -1.71162113648566
N           -0.46680419656756        3.12840181448712        0.03159522331273
C            0.54904425740091        3.14449555055416        0.84795382097387
C            1.67083178849708        2.33209053121892        0.89001776686595
C            1.89833647880375        1.04045380795047        0.41455899230705
C            3.17970847054004        0.49627137215146        0.38645838122231
C            3.10911337017657       -0.86131101946790        0.06153814271462
N            4.12766756041774       -1.71485940191653       -0.10825812185349
C            1.73009643118053       -1.21561118585060       -0.06972123095409
C            1.35690856929592       -2.50908540780161       -0.42934254071374
N            1.17523710286344       -3.60170733795790       -0.74506723413109
C            0.94154989466465       -0.07335222829662        0.12184355803195
C           -0.45654977015655       -0.10807647621804        0.15442909098619
C           -1.19551396974040       -1.29541908865458        0.36673600592563
H           -3.61969779500197        0.83149172759656       -0.37812310316230
H           -1.77246843123678        3.67084231507943       -1.97517299604655
H           -2.51414536030192        2.10924779498607       -2.15553805829799
H            0.57299660059631        4.03825527173882        1.46674098359338
H            2.53034883097134        2.77909554814178        1.37655812085306
H            4.08606496944761        1.04158861659843        0.57292197929964
H            3.93962123012975       -2.67256015911201       -0.35324460424167
H            5.07907692666789       -1.40607406659678       -0.01792927042128
H           -0.78542436658541       -2.24096254993732        0.66417682390460
