25
 energy: -42.687058149762 gnorm: 0.000824294338 xtb: 6.6.1 (8d0f1dd)
N           -3.68282512555878       -0.66917654700425        0.29602313690393
C           -2.49654462975328       -0.06443797114329        0.11769864303051
N           -2.49011560287113        1.29241057145174       -0.04354432433879
C           -1.22563512638260        1.63508161508428       -0.14616241663292
N           -0.77125886332110        2.86603398730512       -0.28931702981033
C           -0.32078325312231        0.45287044440399       -0.12958304074267
C            1.03034154492544        0.61298800962368       -0.23403054051193
N            1.61229481482135        1.86419618413430       -0.11770908374255
C            2.85299834394441        1.66172091594451        0.24938720847416
C            3.20163649980798        0.29134517826056        0.30879492031705
C            2.08516226510064       -0.41429557575370       -0.08996847550294
N            2.06105382608430       -1.68849078133425       -0.45380894175846
C            1.27617890739287       -2.68308328754768       -0.39675226042938
C            0.01486092516834       -2.88960819765886        0.24961702996648
C           -1.02520912119683       -2.02788878342135        0.38752390662160
C           -1.21156145134750       -0.65334869769587        0.08552942835824
H           -3.76545112792612       -1.66890383802277        0.28033088165738
H           -4.50688837864354       -0.10129132997915        0.21241876145015
H            0.25729456081282        2.93879641427246       -0.29518873459107
H           -1.41050195904284        3.64111548849681       -0.31322964765297
H            3.50804149856290        2.49442880516917        0.44208819396717
H            4.16098537931186       -0.11192130742281        0.56681426940009
H            1.64764590902334       -3.55891698694166       -0.93139066321936
H           -0.18849953062513       -3.92764118023047        0.48310748308630
H           -1.93049906116432       -2.49136436529005        0.77133468569987
