31
 energy: -54.615078148196 gnorm: 0.000845530654 xtb: 6.6.1 (8d0f1dd)
N           -5.39666860604095        2.01569795843128        0.35440783082772
C           -4.35388279350296        1.54726860588494        0.22287375410810
C           -3.11405468850622        0.92960235226869        0.05906660670827
C           -1.86444719646454        1.45432531664253        0.33286489218174
C           -0.87661043992929        0.46807534129351        0.09493680085683
C            0.47602065392731        0.78771495390320        0.13208357342775
C            1.00006470199799        2.08362375358409        0.11420500033364
C            2.37543834401546        2.02736469202315       -0.11076391717149
N            3.21376286886452        3.06227431376083       -0.26503408232243
C            2.78206288528842        0.65335288949795       -0.16887534988081
C            4.09345336433293        0.22911922704587       -0.34154694690471
N            5.19546854053855       -0.07156113415484       -0.49072284782842
C            1.65155187983378       -0.13985682037182        0.04335670524067
N            1.73112645675727       -1.40506049071005        0.34481970125224
C            1.03412538689431       -2.49019187380350        0.27883417003192
N            1.46782453352606       -3.51480175271219        1.04982859338878
C           -0.06319155994241       -2.77129901164503       -0.60611087821474
C           -1.14586915773759       -1.99216180507268       -0.85667874686460
C           -1.57996249594338       -0.73341672241845       -0.37688684255059
C           -2.94132883232559       -0.40868251978822       -0.41750963269069
N           -3.98721894845870       -1.17697264051497       -0.84837957619924
H           -1.68081565691774        2.44182166129390        0.70948637290734
H            0.43573969063149        2.99411157063822        0.16907742327851
H            4.18647438425578        2.89421801585309       -0.45697877976304
H            2.88327597100368        4.00695124672571       -0.18146086767024
H            1.07648759972616       -4.43306379657677        0.95060473113099
H            2.29814070979847       -3.38845879986286        1.60211221357715
H           -0.06350465187937       -3.77209025303947       -1.01890349248178
H           -1.89425437057213       -2.47398534283788       -1.47981008819773
H           -4.90906994629706       -0.84341022789375       -0.61720558174460
H           -3.87806852677692       -2.17603891884255       -0.87006921906640
