27
 energy: -47.700994247733 gnorm: 0.000788949473 xtb: 6.6.1 (8d0f1dd)
N           -2.94791344441823        3.14143490840502       -1.26579415219020
C           -2.16630095721198        2.40944336470296       -0.85184319196291
C           -1.19145444496395        1.50274015665710       -0.35944831933766
C            0.07908930421936        2.01523090524354       -0.38255290182134
C            1.32222226668373        1.54484048649451        0.06924962161233
C            2.38183951362338        2.40386781916292        0.32070533899126
N            3.50960832368463        1.74932078141964        0.70443437356552
C            3.25820066537126        0.47431868080600        0.61735848050209
C            1.89004459466046        0.20422225292047        0.22864220249903
C            1.42291983950644       -1.04575251701051       -0.06823659148789
C            2.28120229124238       -2.16020722628957       -0.28807432091982
C            1.52112045376895       -3.25319416337420       -0.59870451722391
C            0.14560567503235       -2.91044086990473       -0.50396997873946
C            0.02290024788694       -1.57640184502118       -0.19762753445508
C           -1.22920583701055       -1.00846309892834        0.16885196511563
C           -2.15878322291168       -2.00860358657400        0.55351567462599
N           -2.92638325483454       -2.79628897825454        0.88629576087820
C           -1.76415580723357        0.28329174685896        0.16628821763924
N           -3.02975834221697        0.43376495951972        0.63533644028731
H            0.12900508750750        3.03678949335930       -0.75136353929689
H            2.37257835567061        3.47756294796852        0.27630121194260
H            4.00013063464603       -0.25642737136790        0.87706123067426
H            3.35209643773562       -2.11038439956331       -0.29701679555246
H            1.88923635557960       -4.22500578427509       -0.87398357413867
H           -0.66580795874435       -3.59659232744474       -0.65923764566887
H           -3.50662628407430        1.31338999305866        0.52770749967464
H           -3.56838586859709       -0.37520520106335        0.89866630668807
