28
 energy: -50.662303884764 gnorm: 0.000855400191 xtb: 6.6.1 (8d0f1dd)
N           -3.17280730194086       -2.60066498702762       -0.77020536475953
C           -2.60203883613413       -1.62917575008997       -0.52258406944795
C           -2.05012570316466       -0.39040609733321       -0.22339846603231
C           -2.88651247900450        0.69179961331780        0.21330110473871
N           -4.21644730710050        0.59252010862092        0.33644077378391
C           -2.09778028239637        1.81268877372057        0.47254423075559
C           -0.77767732372995        1.50811909032131        0.15232008431876
N            0.13544290701309        2.41467388974710       -0.03746647903369
C            1.42693380136085        2.39543951079907       -0.26893039725909
N            1.87931165494673        3.28845089199427       -1.18016406002013
N            2.37147514709551        1.78567211370816        0.44585222837067
C            2.47708264661105        0.52670363818187        0.74334290593175
C            1.77918138835136       -0.58323861623917        0.26870153942556
C            2.33578541185124       -1.88480100086667        0.26125779951341
N            3.56810881501091       -2.27429055698409        0.65948338445592
N            1.47830717617712       -2.80858386905326       -0.23422191087534
C            0.35134802861162       -2.17636125618549       -0.49156500711966
C            0.41101890671210       -0.77901258811723       -0.22595575085337
C           -0.71268877497097        0.03320334961095       -0.17923745256337
H           -4.75539406995205        1.35240623835058        0.71148501302226
H           -4.67376556153263       -0.27485549395117        0.11030750297760
H           -2.45297092016673        2.77828743423995        0.77397819666457
H            2.86396387968319        3.48443787317542       -1.21501919664237
H            1.23066201670092        3.94363494379576       -1.57926983400028
H            3.33467544454307        0.31758196065278        1.38134781451244
H            3.83516275833338       -3.21430564625247        0.42536334308406
H            4.28908139320729       -1.59694497737438        0.82660125684881
H           -0.49486041001469       -2.71376996576308       -0.87525996019685
