31
 energy: -54.631767210305 gnorm: 0.000855808793 xtb: 6.6.1 (8d0f1dd)
N            5.39701485432394        2.27101505264388        0.53635273570107
C            4.40530778530783        1.71642917544114        0.35824481269381
C            3.20536692173186        1.03708026442289        0.13558852338144
C            1.91943964014605        1.55601258262528        0.30069194435513
C            0.97936894161883        0.55113960065198        0.02768836267358
C           -0.40705868430791        0.81642421615068       -0.06989336817544
C           -0.91473987420238        2.08909698587540       -0.22220310309877
C           -2.33137386000262        2.05363744684985       -0.26208474414065
N           -3.13737901030798        3.11282663519588       -0.43860849818287
C           -2.74169001132796        0.72222625265063       -0.09676021514416
C           -4.05766581833880        0.28199962999295       -0.04925300239169
N           -5.15567933952518       -0.06633616607245       -0.00370374054135
C           -1.58106959247412       -0.09960759177728        0.03660732154566
C           -1.69507577024202       -1.41005766536629        0.39960242952177
C           -0.70710996671247       -2.42802995845606        0.55787117007618
N           -1.00602328117932       -3.42176064845898        1.42541123458501
N            0.35662921967076       -2.61441209159396       -0.16744155383737
C            1.26197247771846       -1.89893731629486       -0.77642498440181
N            1.91996013012706       -2.50877442856817       -1.78275171396501
C            1.73932387807492       -0.62431911237905       -0.35086312633830
C            3.08898777557012       -0.29348553315048       -0.31214505112695
H            1.69847969570865        2.55312852844370        0.63056936603176
H           -0.33835694581125        2.98714540607205       -0.33574770231615
H           -4.13458433414940        2.98878003638682       -0.45721735459903
H           -2.75321787220479        4.03502740173128       -0.53723635336408
H           -2.70464467978462       -1.73823850748538        0.62693660562787
H           -1.87119916692418       -3.41638669291254        1.93390669319811
H           -0.37772615774272       -4.19924700538946        1.52151802381289
H            2.72508341953509       -2.06675720896385       -2.18740510903257
H            1.70389663665172       -3.46294315162969       -2.01398318893762
H            3.91542293955289       -0.95316719373604       -0.50926740900999
