28
 energy: -51.467520847654 gnorm: 0.000807745492 xtb: 6.6.1 (8d0f1dd)
N            5.39640634888702        2.04318124888177        0.16181493225790
C            4.37963907089242        1.50918369153543        0.11807920215959
C            3.14701265452740        0.85197378656093        0.05444512790329
C            1.89746393329647        1.41716572813879        0.26436485373841
C            0.91310273468550        0.40971923632555        0.16622815933249
C           -0.45977142430352        0.69034519463720        0.14119219031025
C           -1.02711361394656        1.92662435930512       -0.10944164183439
C           -2.41338034504521        1.77577880391866       -0.31796258541591
N           -3.27383027105468        2.74184049365390       -0.65257007591361
C           -2.76609817760927        0.40814370816928       -0.13664665382452
C           -4.06175481765057       -0.08930926040817       -0.24797692355035
N           -5.15016461859318       -0.44224046357113       -0.37123528412513
C           -1.60764119402435       -0.28924348418798        0.23545173434610
N           -1.61568598424421       -1.45045672081104        0.81877992957310
C           -0.72567482266719       -2.36457585987946        1.05396441862653
N            0.23390962491500       -2.76478403543761        0.26714452380861
C            1.08411425425819       -2.12008823075118       -0.48180508553559
N            1.63589295522071       -2.78814295571782       -1.50905898252572
C            1.62193230565973       -0.82017514182702       -0.16699625960989
C            2.96720115754200       -0.52010602922425       -0.25877857054256
H            1.71309238626706        2.44446668240056        0.51331600647547
H           -0.49973650081873        2.85462919561896       -0.22042785672735
H           -4.24351269893478        2.51839838424022       -0.80354155015633
H           -2.97262225050364        3.69841191987854       -0.71887229213602
H           -0.93681894966147       -3.01062770377023        1.90215772277040
H            1.37292584722429       -3.74593976312692       -1.66925068424718
H            2.42919266338504       -2.40383514250849       -1.99042337402984
H            3.76534185959142       -1.20884658404499       -0.47043225843028
