29
 energy: -55.185753146431 gnorm: 0.000797634579 xtb: 6.6.1 (8d0f1dd)
N            4.64028363751744       -1.23158699623153        0.76639960371884
C            3.52399527094886       -1.21488033225374        0.49255721557140
C            2.15929560109958       -1.29642192639728        0.21243694584569
C            1.47040705924754       -2.51906835582429       -0.00615456226571
N            0.19212117383815       -2.34597087917498       -0.20707746507072
C           -0.07660851430243       -0.99097849083538       -0.07802244545147
C           -1.38213434072877       -0.58300667627866       -0.15277179731454
C           -2.47632287840054       -1.53875790575263       -0.44760913613616
N           -2.25818362127267       -2.77683856783622       -0.84788410243777
N           -3.67333978674254       -1.00114576360662       -0.28281689563958
C           -3.46704433990201        0.26112820806618        0.16034626035322
N           -4.51686956349664        1.05222533920950        0.41819753375007
C           -2.09399679909154        0.60988784062380        0.23493612216528
C           -1.60233821985660        1.77755206090439        0.83274468757643
N           -0.48038836422998        2.37419663776950        0.66402056528431
C            0.64313426457407        2.20073154791938       -0.01374450840932
N            1.05467716126221        3.29525997048958       -0.69307099436200
C            1.52462097951141        1.08957891779400        0.04101612843180
C            2.86389277162378        1.40298803976767       -0.25394646293207
N            3.92433767977836        1.75548044837942       -0.53131754739301
C            1.19750717773229       -0.27900636405197        0.15363273960211
H            1.90817241058650       -3.50189367881063       -0.00894996910945
H           -1.27206024854321       -3.07022893352328       -0.75543295200807
H           -3.03722587476096       -3.40181423526969       -0.96899960581721
H           -4.39535602881437        1.95465249968738        0.84017263582807
H           -5.43518503344215        0.64949722386057        0.35645382826919
H           -2.26867903746336        2.29725544829271        1.52127565173959
H            1.98878269908661        3.32999010794925       -1.06717316039340
H            0.51928292444150        4.14308467463617       -0.62203614509852
