28
 energy: -47.445451950131 gnorm: 0.000469645158 xtb: 6.6.1 (8d0f1dd)
N           -5.38055956442108       -0.84770604736163       -0.41417988731665
C           -4.25025684755224       -0.71485199737578       -0.26854211266851
C           -2.84945295623502       -0.55346328478894       -0.09535315906640
C           -2.19349625151672       -1.76802350028970        0.16165864005152
C           -0.88040973954515       -2.14785472385056        0.28659412770417
C            0.37357985926043       -1.53725441429679        0.15716832231362
C            1.49990058573911       -2.35099015034219        0.15473107636778
C            2.65409756402789       -1.57433034087275       -0.02927649414543
N            3.91599455847506       -2.01468510671245       -0.12435041811653
C            2.25632156185898       -0.21348864158544       -0.09470292535641
C            3.22234327456388        0.76231847685203       -0.33558772143546
N            4.12254886086244        1.44628241646681       -0.55835618822540
C            0.84962322816837       -0.12786095914212        0.03669938640836
C            0.18083494005416        1.08758851587144        0.12686858467603
C            0.87502840708503        2.30541167367810        0.28371122144195
C           -0.01290186042358        3.36672348340409        0.24529110762394
C           -1.29524477539374        2.86592704681489        0.04261369072799
C           -1.25534323206450        1.46448635293079       -0.00028703508752
C           -2.44561804311277        0.77657210815379       -0.16564954874063
H           -2.89217541164785       -2.59475654870426        0.25565453696606
H           -0.77163559462971       -3.21361566285812        0.46628211030169
H            1.49224752293205       -3.42160838484662        0.24485083784389
H            4.11864599253157       -2.99811831010427       -0.10514231638733
H            4.66080249489393       -1.36096042491073       -0.29955278500071
H            1.93112673599175        2.39890564773665        0.44099053739930
H            0.24722971542275        4.40358970385940        0.35620606236755
H           -2.19246674598778        3.45207944372334       -0.03750927021260
H           -3.28319751574061        1.45081788974559       -0.33271561153662
