29
 energy: -50.363174303722 gnorm: 0.000758687291 xtb: 6.6.1 (8d0f1dd)
N            3.44885815564890       -2.46512355276157       -0.91427618738534
C            2.53647103366469       -1.84615657165619       -0.57808579570847
C            1.43827350228802       -1.09396298240486       -0.14536108706337
C            0.51559842930232       -1.81108672639475        0.72953071683179
N            1.07143002673735       -2.51720015869064        1.74134127155127
N           -0.74996327863214       -1.91675966520646        0.55391665509437
C           -1.69989005495874       -1.27993251632388       -0.09035262664964
N           -2.76373031899621       -1.89970123779080       -0.55418122238815
C           -3.68260990438380       -0.93051294006827       -0.81716482660580
C           -3.26184214856327        0.33611891368294       -0.48831243017550
C           -1.90919263051267        0.21361328044384       -0.09922278827713
C           -0.99818751340714        1.21421412772088        0.13223358173898
C           -1.41163616721327        2.56283961380572        0.42985966721677
C           -0.31279901935332        3.34060415792227        0.58299256950443
C            0.84859907470139        2.54758691827457        0.29989479264296
N            2.11619949153160        3.07525495918423        0.29724997205639
C            0.45592168010739        1.23598722254852        0.03809354040954
C            1.37342474358983        0.24989059667907       -0.47591994410140
N            2.39142808271202        0.75735854469546       -1.23251420226114
H            0.47984513010057       -3.16087124008289        2.24106345963385
H            2.06438304507483       -2.67932556455576        1.74375097893166
H           -4.62964127169815       -1.21274375573089       -1.24343413520790
H           -3.81344801362137        1.24587611249711       -0.61646459891839
H           -2.43316124437718        2.85378806780729        0.57906941614305
H           -0.28071576078713        4.37763120473587        0.86381371942584
H            2.22469812940999        3.93650838360753        0.80962163224808
H            2.87875715774547        2.42337947333023        0.40197811651171
H            2.26313265510043        1.65730804199046       -1.66131983485235
H            3.01611147448941        0.10927367844053       -1.68553377754604
