31
 energy: -59.396374668175 gnorm: 0.000706581083 xtb: 6.6.1 (8d0f1dd)
N            4.87109958829705       -0.04351083629828        0.92016660137310
C            3.85831621498469        0.46514678386861        0.73021813077338
C            2.64071468443058        1.11170567991294        0.50815332382920
C            2.39442067998859        2.46989878889623        0.67654148388259
N            1.12120980675732        2.79128736460538        0.40145039443709
C            0.45260434475661        1.67190942991937        0.15796522593082
C           -0.86783962550483        1.77970313753178       -0.32934364200922
C           -1.12914409453428        3.06357353647975       -0.87013593884233
N           -1.38148586428857        4.07339776335625       -1.35523080440011
C           -1.98292585552345        0.92931621655603       -0.24194496094944
N           -3.14918917223321        1.41133077783826       -0.72436150207806
C           -2.09407443746361       -0.34174034044420        0.42528943832636
C           -3.35358594656419       -0.53536768208526        1.02898007872720
N           -4.37561850510256       -0.70457161464691        1.53105056921131
C           -1.24949334460085       -1.45412810968389        0.45369402401138
N           -1.70353696112183       -2.56695120308142        1.07522004555585
C            0.00512996345066       -1.61886992168680       -0.21895396016971
C            0.44690839540454       -2.83178354390506       -0.75867553452599
N           -0.23246200161962       -3.99431668600632       -0.95135657813029
N            1.76802124838912       -2.77660942093472       -1.13966183884356
C            2.21305146833751       -1.61021212573630       -0.78797836349463
C            1.17335165425599       -0.77568289850561       -0.21733456109371
C            1.37980931303642        0.51503252569483        0.20698157164332
H            3.09127149139581        3.22563155306892        0.98974735148629
H           -3.19850894746627        2.36289755205563       -1.05464853171883
H           -4.00902445378737        0.91152025552298       -0.56646686181423
H           -2.56208782011359       -2.53727506540050        1.60157958536584
H           -1.08329812370240       -3.34722895349777        1.20464939574791
H           -1.23362516529101       -3.95492814596623       -1.05666838098222
H            0.25094924950701       -4.66004840461157       -1.53428524025182
H            3.22247251432579       -1.30736076321587       -0.99005539209812
