27
 energy: -46.910763442759 gnorm: 0.000824821433 xtb: 6.6.1 (8d0f1dd)
N           -4.06434372406924        0.87016564202617        1.63793755861599
C           -3.14628433062932        0.87775059350951        0.95048325258100
C           -1.98291460316934        0.91469178077553        0.14009994390156
C           -1.43935647038398        2.12512331450236       -0.09419662217240
C           -0.29950363604878        2.50240392051271       -0.90406411331376
C            0.92853120408340        1.97729888664835       -0.94156416150359
C            1.46040077579474        0.83098595977723       -0.23089393067160
C            2.80179310896540        0.74097443064801        0.19223510078279
N            3.73267945402169        1.70163984033897        0.16216594016943
N            3.13446333867851       -0.50087120265713        0.68042431588587
C            2.06725364823075       -1.23815759739178        0.51941662540959
N            1.96280670263504       -2.48885754147694        0.95497750879591
C            0.93824584056365       -0.46605563894292       -0.09000740798549
C           -0.28357105930731       -1.01835416305046       -0.42023121556744
C           -0.56690838929667       -2.38386808049703       -0.75386006991152
C           -1.91655037103638       -2.46071547893010       -0.93243176622325
N           -2.53461838931547       -1.27986153165044       -0.61632773720602
C           -1.60003081525173       -0.39720078046514       -0.37246747070015
H           -1.96504607475664        2.97665882169988        0.32930703903502
H           -0.47351327644649        3.40343540104397       -1.48257958369387
H            1.66286147483587        2.47981456299148       -1.56499135933457
H            4.65009980868474        1.49164512164352        0.51339055665554
H            3.49229359590986        2.64324440481414       -0.08961316373510
H            2.73083894443358       -2.89673975283249        1.45979872070389
H            1.08964762843966       -2.98092981045574        0.86078033790628
H            0.15303357835108       -3.14955518654325       -0.97760335382335
H           -2.50699954471697       -3.29812667903838       -1.25448004440061
