27
 energy: -47.709585219242 gnorm: 0.000885529131 xtb: 6.6.1 (8d0f1dd)
N           -4.66083119961258       -2.02457675101199        0.20225648619052
C           -3.90383144987266       -1.16616691432172        0.09096203506885
C           -2.98136490349084       -0.12549971231943       -0.03574391728746
C           -3.29830437046375        1.21750175280327       -0.33741230453633
C           -2.13762068048577        1.96027227714511       -0.35473605826421
C           -1.03289055555280        1.12113038701446       -0.10880634988766
C            0.25523126559351        1.59863930589203        0.04762851093887
C            0.53163514670217        2.97853237813156        0.30356915726180
N            1.81591456487527        3.22120990835461        0.41029942051242
C            2.46024356264680        2.07258314488582        0.13046877724070
C            1.58759414250023        1.00089361601698       -0.06004260982878
C            2.05842002027397       -0.29054852052100       -0.39979362166209
N            3.24098417617648       -0.32938680065178       -1.04445139523783
C            1.51916704950609       -1.54813425641658       -0.00467090741790
C            2.45578604064342       -2.61178444452523       -0.06438795993631
N            3.21608107422642       -3.47125874815080       -0.11278393750247
C            0.27621460872365       -1.97830140517435        0.45813937188604
C           -1.01103421717063       -1.46124970332233        0.44957181977601
C           -1.58363367334700       -0.25237959058018        0.08819285070363
H           -4.29219678536973        1.58393743786191       -0.52214078843803
H           -2.07724202187195        3.01067686006043       -0.56276074587612
H           -0.18988211410113        3.74858204885661        0.49737476201998
H            3.53496916154282        2.05108968361570        0.17225936234042
H            3.70734546919863        0.52842651985696       -1.28349863286509
H            3.71855778420930       -1.20382471897964       -1.19549649628961
H            0.30894477063345       -3.01119690839093        0.79382987560656
H           -1.75849677241334       -2.19758442692923        0.73310713538431
