28
 energy: -52.248720906393 gnorm: 0.000441360499 xtb: 6.6.1 (8d0f1dd)
N            5.61379156067464        1.06437592371976        0.05504973246775
C            4.55184331707398        0.62946331856568        0.07873152361974
C            3.26303932916145        0.08026645964387        0.11562346370392
C            2.94436902419411       -1.22011252649536        0.56035398316441
C            1.58356903821785       -1.45448740095358        0.38780658737602
C            1.07776727956220       -2.72351477445377        0.73824523404405
C           -0.01581741661874       -3.44535613603335        0.34383536321160
C           -1.08211104379274       -3.01641283482475       -0.47326577822869
N           -1.66340320510987       -1.87651286566429       -0.46463327268357
C           -1.52969567875361       -0.64075193062672       -0.11159164913314
C           -2.62214403756780        0.20493867020666        0.16581169551893
C           -3.93694835610975       -0.17912588909199        0.42758073156429
N           -5.03091258334265       -0.44936309060988        0.65532118121071
C           -2.17937391504778        1.54592946303913        0.06509796142225
N           -2.93293270701167        2.63337134518168        0.22189534778356
C           -0.78347927736363        1.54734377229398       -0.23124271960189
C           -0.09838348316754        2.75027944144031       -0.39957028649374
N            0.36358468220101        3.79641203957857       -0.52824949942717
C           -0.31418229023353        0.22254303425342       -0.22795023387898
C            1.01003309513687       -0.19109388507625       -0.13249639034929
C            2.08614895573245        0.70942649780234       -0.27435217003130
H            3.65675881720023       -1.92923693220911        0.94058865186070
H            1.80409176740448       -3.29968697838596        1.30339111511846
H           -0.02444733577138       -4.49713685438948        0.59762992531782
H           -1.56334520742566       -3.75855842023201       -1.10591637347835
H           -3.90566021625004        2.54651267419772        0.46554719778839
H           -2.53266599162944        3.54834393858798        0.09205660208182
H            2.01282264053682        1.71565603013365       -0.63885237534852
