33
 energy: -58.051158479054 gnorm: 0.000782865969 xtb: 6.6.1 (8d0f1dd)
N            5.18107338598319        1.75108710841796        0.41736505037900
C            4.08389159863854        1.44616360919413        0.25428079052758
C            2.77000392616310        1.01279555856024        0.07218214403778
C            1.62899643519311        1.77410742613862       -0.04193582417389
C            0.50332891558813        0.90672921932612       -0.10079290360116
C           -0.77346966324670        1.43948134854179       -0.15698887571593
N           -0.93586014400826        2.72648933900619       -0.51035032381318
C           -2.22140875735366        3.03032442821401       -0.30374068883061
N           -2.70272853852070        4.24604466739693       -0.60110325966778
C           -2.94153151493116        1.94751710151653        0.26722725763527
C           -2.06627109920147        0.88462368459800        0.33683622783212
C           -2.37300268426724       -0.32556154163693        0.98060783692458
C           -1.87680258481585       -1.60160323693620        0.87671689783368
N           -2.44994843313180       -2.55310238930377        1.67909466911897
C           -0.90616615038200       -2.13708132999862       -0.05565707431575
C           -1.26336901672193       -3.41576642773138       -0.52110146254261
N           -1.56595379965413       -4.45681498331150       -0.91355953672517
C            0.33356288302739       -1.66904075574048       -0.47556616264472
N            1.07839062178729       -2.50635330709805       -1.25261869114383
C            1.00758555668856       -0.45695277039955       -0.10667068815038
C            2.39515748467998       -0.37443619395844       -0.01201956283674
N            3.32249904765233       -1.39111727990950       -0.01200918166945
H            1.55701376609367        2.84311622693588       -0.01908232223091
H           -3.68117056634904        4.44918869220998       -0.51090110196276
H           -2.09259208047912        4.90391671666993       -1.05279553595020
H           -3.97496193691692        1.96195041479100        0.55491447793594
H           -3.24278805721245       -0.24694014110928        1.62759733188497
H           -3.30587824561768       -2.32940925441928        2.15813543710563
H           -2.28648528770985       -3.52521422637752        1.47494892554557
H            0.65524561775600       -3.34374900611716       -1.61797444822520
H            1.88415984815323       -2.13634488146418       -1.72523565790152
H            4.23238578962642       -1.13125491253939        0.33947342123010
H            2.99931034708865       -2.29657783826554        0.29248849720992
