27
 energy: -47.708781550917 gnorm: 0.000684838503 xtb: 6.6.1 (8d0f1dd)
N            4.30819594276167       -0.89823654740831        1.33184257863048
C            3.43595180831481       -0.42088171999362        0.75919770553485
C            2.35494623457129        0.17966268050523        0.06449977133320
C            2.54614922267512        1.46811789040553       -0.31366117723944
C            1.72671608576430        2.36897194358392       -1.06659916402970
C            0.39419303137387        2.55388504893167       -1.06132995764913
C           -0.63877222423853        1.94027905229642       -0.27147515439659
C           -1.80894578039387        2.60921877213303        0.04544857999668
N           -2.70576488413519        1.85687538456057        0.73826604334238
C           -2.22287322640060        0.64514624280189        0.77337091446395
N           -2.74129226465406       -0.31135855220564        1.54493995095437
C           -0.87721849206027        0.57311647948963        0.09475279109967
C           -0.16545571707838       -0.56869498050142       -0.14247572180215
C           -0.73919792613972       -1.90167367348770       -0.33659851246132
C           -2.08849935383317       -2.21358970884884       -0.52006717466001
N           -3.19040730459015       -2.50553999438760       -0.67703053356871
C            0.28708558718474       -2.78976942193250       -0.53202634196682
C            1.52069396060412       -2.09408724544635       -0.39560294544549
C            1.28005863648133       -0.75586044015164       -0.21913576485708
H            3.52098282644195        1.87932914162862       -0.06721261368309
H            2.30550543409046        3.06602288481342       -1.66204746955281
H            0.02185448766376        3.37424316153414       -1.66516078518187
H           -2.04848045997385        3.62949773113344       -0.19387959777118
H           -3.61821760581194       -0.09888544953365        1.99337755956707
H           -2.49183514057712       -1.27850735383369        1.42257838798672
H            0.18113341077223       -3.83481429444432       -0.75812426235007
H            2.48983895118721       -2.55608123444226       -0.44177428499392
