28
 energy: -46.635574164560 gnorm: 0.000845380045 xtb: 6.6.1 (8d0f1dd)
N           -5.20991903047687        0.23405567353589       -0.01680965254379
C           -4.06576452801004        0.28047263505836        0.09927293752987
C           -2.67631736986237        0.30616201904109        0.20720603840950
C           -1.88514012077807        1.37111729055592        0.72678518128819
C           -0.54604228040720        1.09879169165981        0.55668763015484
C            0.42134693612046        2.04762865958068        0.99123254292806
C            1.69284937783896        2.30282512160833        0.61341949623752
C            2.49742702954805        1.57836820456061       -0.34333789630911
N            3.28438239798690        2.33713393052439       -1.14941725234363
N            2.67654590994409        0.30667630764090       -0.41691802730854
C            2.09415310117628       -0.79411964722551        0.01336919648255
C            2.76945433013266       -1.96909139562271        0.26174285019744
C            1.82861280125442       -3.01593071107294        0.34563791763796
C            0.55741435791538       -2.54327279459787        0.10487410616359
C            0.61608821973296       -1.13312674120807       -0.01301532696233
C           -0.45117881264574       -0.27113444634892        0.01556357624905
C           -1.81788837153128       -0.69945793784699       -0.21868338567089
N           -2.20063097633737       -1.87841116457393       -0.78618375511349
H           -2.29324531242829        2.27127597428343        1.14986597439231
H           -0.00967220473959        2.78302985687135        1.66390182901624
H            2.16423510095535        3.19592930257714        1.00357999266949
H            3.84511749759323        1.87725429161149       -1.84483813909151
H            3.16655141889456        3.33225545785121       -1.19032012272199
H            3.83292428221788       -2.06755116348419        0.36030589110399
H            2.07479083800160       -4.04064089799643        0.56560034795287
H           -0.33840751188585       -3.12734318014307        0.17773184669539
H           -3.16761378757930       -1.93777111808317       -1.06618870846744
H           -1.53517719153085       -2.34831571235670       -1.37762117587514
