28
 energy: -45.833063472173 gnorm: 0.000772153322 xtb: 6.6.1 (8d0f1dd)
N            1.04877843007040        3.21260135349377       -1.14629214709450
C            0.85508524764922        2.12423024509906       -0.35964344722289
C           -0.30651923288432        2.14258351570943        0.48937376693713
C           -1.20546459996316        1.14102444567980        0.69716168973991
N           -2.30171362316505        1.43307745311547        1.49140486437987
C           -1.28717493110115       -0.14563824168061        0.03613285611621
C           -2.49722159145882       -0.74739047809625       -0.27981419083496
N           -3.76919296946792       -0.22568444014663       -0.17578182675412
C           -2.25534773366911       -2.08690810108940       -0.73848150442508
C           -0.92859766141900       -2.34042547714154       -0.64339416611256
C           -0.25210863132946       -1.14457642013841       -0.20394905730994
C            1.10564483767511       -1.11755064177005       -0.00536555104999
C            1.96992417130113       -2.21692593002864        0.20575719617012
C            3.18206715452865       -1.68801935085583        0.57646781359150
N            3.23212265856751       -0.33060110762180        0.50950237587633
C            2.03212803164410        0.06507985570516        0.13130566855763
N            1.82495346233590        1.27736356515209       -0.32441826821112
H            0.32242235438933        3.89340940048238       -1.26896295664420
H            1.86664701297896        3.24219905861379       -1.72932151407753
H           -0.51450909372564        3.09818862941384        0.95661599930045
H           -2.19860963792500        2.21958553399893        2.11322474657575
H           -2.78046333874715        0.64071150379367        1.88778733105249
H           -4.45760294683817       -0.67071459254455       -0.76286701787956
H           -3.82900421075739        0.78088232769788       -0.15069559667754
H           -3.02456728696156       -2.75134109473393       -1.08967203071593
H           -0.42324151350277       -3.24432371359199       -0.92344360664883
H            1.70369152991224       -3.25510786391539        0.19069078299422
H            4.05732279866320       -2.22607006700017        0.89876065926732
