24
 energy: -43.747042085088 gnorm: 0.000973874359 xtb: 6.6.1 (8d0f1dd)
N           -2.88057454517635       -3.00561559110954        0.56231086207382
C           -2.54783118958317       -1.92958042317994        0.32971180482960
C           -2.19298541407563       -0.61369877956433        0.04088910366218
C           -3.05088807692992        0.34103285013243       -0.51251109657400
N           -2.49858329944898        1.54807157281162       -0.66497222834518
C           -1.27137869183047        1.48204872985638       -0.14176297263369
N           -0.58349369416209        2.52023929048341        0.14945250738871
C            0.56804218133036        3.00618024400364        0.43314002712198
C            1.82281030180756        2.58082386257376       -0.02520549403080
C            2.23767337409121        1.28736843687248       -0.25316022108359
C            1.67076237899701        0.02788402210631       -0.03840577967084
C            2.47900583287384       -1.13450409894038       -0.06756259137675
N            3.80500421873879       -1.25028747034228       -0.25377784359397
N            1.76299334701418       -2.27953500844504        0.13050693468932
C            0.51341082218753       -1.93033520753066        0.25992450104633
C            0.31403881513547       -0.50695991424888        0.19567934651730
C           -0.93971679882762        0.04529618849592        0.20476437910025
H           -4.07192961551102        0.17882255552264       -0.81078737495677
H            0.53182602840575        3.92505928776499        1.01415863144332
H            2.58423040596530        3.34658383019410       -0.07838211034246
H            3.28226897127692        1.22442479992487       -0.54319716137028
H            4.41142807783948       -0.45362300762972       -0.31212153909383
H            4.20061774398970       -2.16977571970835       -0.16986146155710
H           -0.25341247640808       -2.66623654244295        0.41112599675847
