27
 energy: -46.904912795882 gnorm: 0.000831289234 xtb: 6.6.1 (8d0f1dd)
N            4.36242293964253       -1.65294356209453        0.58598244754135
C            3.30298787572627       -1.29375115514012        0.33247291384775
C            1.95423572096979       -0.94144151646503        0.05336468762471
C            1.11909234662814       -2.07111343673265       -0.07344728111022
C           -0.18907361834956       -2.29004483049738       -0.39605734503281
C           -1.37062233425527       -1.50203394812366       -0.50054736704056
N           -2.43825837729854       -2.19144982822960       -0.96422132361385
C           -1.62612803704514       -0.19134599778920       -0.06952917336692
C           -2.92600325657247        0.28190042765828        0.22944206184771
N           -4.11395069384424       -0.43280289193902        0.28968071917306
N           -2.94419877152774        1.59726977024990        0.50600324356268
C           -1.70899473499294        2.04075403495873        0.35324012948519
C           -0.78960007949120        1.01498260207179        0.02641671287341
C            0.55075640705817        1.29125190182591       -0.20608314765513
C            1.08019225029707        2.58009483048060       -0.35154336664325
C            2.46073788851581        2.44801121540134       -0.40115752185828
N            2.86657459312789        1.18292903452841       -0.24332966672100
C            1.77130497945084        0.42205577133676       -0.14986031326951
H            1.68730497172967       -2.99148749954887        0.03562650654552
H           -0.40733180632537       -3.33943885647710       -0.57531587847985
H           -3.30051556435391       -1.70278274341642       -1.14750170928916
H           -2.32256635762096       -3.12663772299914       -1.31458470066102
H           -4.85405770081672        0.16427028137953        0.63871414315335
H           -4.06061409127316       -1.30047181125143        0.80853821965649
H           -1.48126226017191        3.07266193669094        0.53716334402329
H            0.53041860567382        3.49325086958727       -0.45646702705021
H            3.18733316511916        3.22680558503496       -0.55198159004292
