29
 energy: -51.153644440174 gnorm: 0.000857242604 xtb: 6.6.1 (8d0f1dd)
N            3.66406098053182       -3.54513633769173       -0.30397649580060
C            2.97596010662397       -2.65244403263056       -0.08040996430330
C            2.13229623880402       -1.55511329792301        0.18305034083800
C            2.72925197296883       -0.52161227132678        1.01621927249294
N            2.62129550892957        0.73420481722089        0.96489945363940
C            1.90983107068426        1.57531768505636        0.18331183253015
C            2.42072930901789        2.73666523100261       -0.32026571238252
C            1.34379056691935        3.52759155995593       -0.84364011109691
C            0.16122602374154        2.91458796433403       -0.58700690177522
C            0.44090600428015        1.61296440308939       -0.01668180682341
C           -0.46755210011636        0.59565544595512        0.09405265318811
C           -1.91756497737170        0.84522149222179        0.14100495983605
N           -2.49211130169392        2.02901714728607        0.40713699024826
C           -2.58037971933365       -0.35648647567776       -0.02032967305075
C           -3.95819017914064       -0.56092497339485       -0.00163287847327
N           -5.09532253971591       -0.73655054259192        0.00796884114357
C           -1.59201557724231       -1.39326117144656       -0.16804938357550
N           -1.93148988824140       -2.68127508225047       -0.34281168875113
C           -0.30721787495637       -0.84399694895210       -0.03227629804867
C            0.83496083416311       -1.66102374590826       -0.22580840614884
H            3.41402287033952       -0.89480913516772        1.77686771038619
H            3.45802419595908        3.00899350829207       -0.33951265937650
H            1.47295814745589        4.46847311772842       -1.34785300240537
H           -0.79986640384881        3.25519767399229       -0.92045506977468
H           -3.48554814130692        2.05876345385062        0.56730010090709
H           -1.92759241626731        2.80204401578702        0.71426803143227
H           -1.23345089098690       -3.39390102709617       -0.46071743515520
H           -2.89634267743070       -2.92172079151484       -0.48924604139146
H            0.60923233683267       -2.60320493529869       -0.72097909430881
