31
 energy: -59.427667756782 gnorm: 0.000620127401 xtb: 6.6.1 (8d0f1dd)
N           -4.25982084141367       -2.02588790509959        1.08388915593350
C           -3.22287726945403       -1.79795617544330        0.64637147333865
C           -1.91837611887523       -1.56826958085510        0.15568616441748
C           -1.08325126001776       -2.67044588519671        0.18193765869815
N            0.01835016394339       -2.89664139227476       -0.48450505768941
C            1.10983045292326       -2.30673612400654       -0.79880222337830
C            1.66893783239510       -1.11834761691514       -0.29064929558031
C            3.05317810360759       -0.87758188703670       -0.28845634210835
N            4.03230433742053       -1.76137585691055       -0.54574333736886
C            3.29607243247555        0.47696918342065        0.09479726483702
C            4.55376670365508        1.06071834233941        0.22414674705945
N            5.59863967983352        1.53388737786347        0.32008766775859
C            2.06549094143371        1.11094146499329        0.25528523277994
N            1.85292376265830        2.37957534570704        0.59271422385781
C            0.99602456145678        0.13215096663704        0.03862929629164
C           -0.31866692939603        0.53047738718146       -0.03274584589559
N           -0.59514310636282        1.88588712487181       -0.02001998187125
C           -1.88555215691024        2.04394358793768       -0.19106569843330
N           -2.49373141870119        3.23100146593363       -0.28514731033683
C           -2.57202086187454        0.76789164554961       -0.26220822260179
C           -3.94578249361227        0.68192659192545       -0.47366153578793
N           -5.07203014522070        0.74940897438038       -0.69745403971175
C           -1.59853371116020       -0.21033701675375       -0.14151835434522
H           -1.45964961170840       -3.55369165801874        0.69361391944236
H            1.71890194154974       -2.86804489869547       -1.50714884428143
H            3.82124114793744       -2.69617513334878       -0.84400184463239
H            4.99084110980927       -1.46061102548508       -0.51993676496009
H            2.62793480448253        3.01626838834659        0.67184383373540
H            0.87728187313646        2.67817038930094        0.50393655252684
H           -1.95838155368105        4.07928240652243       -0.24167743187463
H           -3.48770902282310        3.26999108743260       -0.42967258101755
