26
 energy: -48.010509813106 gnorm: 0.000962672280 xtb: 6.6.1 (8d0f1dd)
N           -5.08364436716259        1.44714685560795       -0.03850522370088
C           -4.06116162705739        0.92706472553830        0.01018769099786
C           -2.82209475037786        0.27705042276665        0.07793162866986
C           -2.61426271955350       -1.03475444210700        0.53266078354454
C           -1.26568678792011       -1.37407941924918        0.38968590927214
C           -0.86378889392892       -2.67105658094174        0.75120497728501
C            0.19026565434775       -3.47273910755713        0.38736735861184
C            1.30649055509414       -3.12352713190311       -0.39169717933652
N            1.97903956406478       -2.03193775574410       -0.35635018499370
C            1.93119753841557       -0.78777883131920       -0.03876278269828
N            3.05115948079654       -0.10696846437673        0.24028169996993
C            2.74973443388545        1.18726673116070        0.12649352434016
N            3.65273305030463        2.14456193775071        0.31447011324794
C            1.36250219744975        1.40769785981940       -0.19961453889575
C            0.83972393986126        2.68463160211057       -0.37126227161092
N            0.49873825759952        3.77597961860403       -0.50487476293837
C            0.76447051580560        0.14822979298648       -0.20215152112805
C           -0.59335481474592       -0.16409038785481       -0.13048031611683
C           -1.58640237186149        0.81274568287735       -0.29475558993644
H           -3.38443718032688       -1.68886563240829        0.89823249323744
H           -1.64726920178108       -3.19796662620572        1.28790414212647
H            0.10037035930084       -4.52523443150141        0.62289457845021
H            1.74349905607867       -3.89530930815980       -1.02114075539888
H            3.40814174304922        3.11094612980095        0.17887051311494
H            4.59105148284228        1.88599266455443        0.56718671555338
H           -1.42609635147851        1.81116721044734       -0.65472748446064
