28
 energy: -46.643807913652 gnorm: 0.000744829594 xtb: 6.6.1 (8d0f1dd)
N            4.65904227951145        2.23506928971951       -0.04488940709271
C            3.68392216731016        1.62489107393401       -0.00636944782623
C            2.52478321167170        0.85027000322503        0.01969745366541
C            1.19019348247933        1.33043520142257        0.02781755396372
C            0.29981454655986        0.27721770941966        0.02084166537523
C           -1.09711275653069        0.50928632348649        0.01511246421629
C           -1.65418930657425        1.76972515410895        0.03927423006129
C           -3.06528760815759        1.60827993227764       -0.01382296373737
N           -3.97681380947305        2.59065262687930       -0.01841913124999
N           -3.41888705306614        0.32573939235938       -0.06972241222853
C           -2.27969528473446       -0.40463809354945       -0.04428913308292
C           -2.47170801804436       -1.76747074000103       -0.06410038521587
C           -1.65748277642439       -2.90037986382907       -0.00307402658336
C           -0.30472398054977       -3.12533840092155        0.06746082779324
C            0.83696309511304       -2.30811286195810        0.06781797779933
C            1.11239256080629       -0.96715939318313        0.02416404174783
C            2.49011340780981       -0.54191200520586        0.01138848028803
N            3.60203041677192       -1.33733771445535        0.05847122081939
H            0.94998747384457        2.37558540589799        0.02767991844100
H           -1.15863847368250        2.71810707483580        0.08664554607699
H           -3.70164995963825        3.55115136432818        0.06972940554799
H           -4.95078721219954        2.34589027559470       -0.03340876382719
H           -3.53138998289665       -1.99453321164321       -0.11734222664001
H           -2.23661115977505       -3.81876512484709       -0.00981960036020
H           -0.05077056058548       -4.17919587333888        0.11742870947284
H            1.73871037171582       -2.91258153070714        0.11639066064924
H            4.47696106629369       -0.86876888034200       -0.11817445530267
H            3.54258697234525       -2.27519296260734       -0.30186092387095
