30
 energy: -54.107841587165 gnorm: 0.000770565150 xtb: 6.6.1 (8d0f1dd)
N            4.74001973100228       -0.98927205922769        0.79813863565687
C            3.71746588016152       -0.51148632378214        0.56444709610965
C            2.51885406688917        0.14033335705277        0.30687973763195
C            2.38053878205497        1.56998884631733        0.24309364589086
N            3.39802976774509        2.42183241338209        0.46215651828625
C            1.07016925895411        1.89269872281223       -0.08559611475674
C            0.30351423314415        0.71489194252698       -0.14778595341237
C           -1.07478282998793        0.63261800384345       -0.19401845338518
C           -1.94117775888688        1.75995071777907       -0.45627356264778
N           -1.58227082913144        2.93954767984358       -1.02147990147091
N           -3.20193539348284        1.53881893760452       -0.10772954461819
C           -3.24015086777240        0.29335225473894        0.41729426493663
N           -4.40673039441800       -0.17596945029513        0.91824009128939
C           -1.99658485473202       -0.37374873937368        0.33932782163206
C           -1.81229934150106       -1.68081216721870        0.79852987029778
N           -0.96608974386974       -2.59351588881688        0.43689492645106
C            0.07719872932266       -2.47282360746888       -0.39323606527942
N            0.16975540200380       -3.44090719331550       -1.33968622515810
N            1.11195302128656       -1.68419469011401       -0.27974110559969
C            1.27676300993979       -0.42439470403950        0.02305119605624
H            3.23730434749386        3.41302945273160        0.47904007723841
H            4.27561860120159        2.06277863660122        0.79736936080626
H            0.68865272865230        2.89505719856963       -0.10568964362166
H           -2.35638333786048        3.52376051204239       -1.29616808832803
H           -0.77745735222514        2.93920344535259       -1.62619558075283
H           -4.52548446431686       -1.16171501534017        1.06558066163671
H           -5.22522962585863        0.37490486241464        0.72530547848523
H           -2.56396737071629       -2.05502059503930        1.49250740092877
H           -0.44829854171715       -4.23045330492672       -1.26906750265383
H            1.05722386262634       -3.56311344114515       -1.79669934265682
