29
 energy: -55.974398149199 gnorm: 0.000866574796 xtb: 6.6.1 (8d0f1dd)
N            0.63745205283042        5.13513199495344       -0.34079018052435
C            0.42951566912649        4.02349402115267       -0.14329170110445
C            0.18853828914481        2.65086849385512        0.08428696489612
C           -1.03506124422092        2.35771067616264        0.76085887716664
N           -1.78556127241089        1.33413129793185        0.66790225383350
C           -1.78810144074331        0.10506535896213        0.23552447143350
C           -2.90766549542148       -0.61279590077038       -0.17302914643544
C           -4.18963824040154       -0.16709886721268       -0.47395217001252
N           -5.26497551227215        0.13938433194181       -0.74463870523638
C           -2.50891529386425       -2.00238540342563       -0.14592012948563
N           -3.31575776869240       -3.02875934708417       -0.40830419150487
N           -1.23158311457271       -2.15641157843005        0.17749241759388
C           -0.69879216744237       -0.92516843398200        0.31120910274221
C            0.66469782351402       -0.73309540341905        0.26985050979719
C            1.52321268110010       -1.86695175347899        0.27719943559334
C            2.82248169348251       -1.45989916628447        0.07994328449972
C            3.97894467266299       -2.24652525715349        0.05199892418387
N            4.95779877906237       -2.84682717820911        0.01690614576241
C            2.82739476467639       -0.03593321718737       -0.10816668894696
N            3.95804247494349        0.65567978511741       -0.33567424702443
C            1.50506010864413        0.44755405029922        0.01501312310423
C            1.23924222023570        1.80166365506275       -0.21062321564004
H           -1.43293049315520        3.15201819639413        1.38972576230833
H           -2.96403226276457       -3.96606785764959       -0.31719715752859
H           -4.26640687258038       -2.86727688422070       -0.69356912597332
H            1.17526201997638       -2.86984972565412        0.42930600198536
H            4.83251605145907        0.16342161124618       -0.39489633946033
H            3.95777716105049        1.65336428723730       -0.45007488059940
H            2.09467383013274        2.34064192074238       -0.61182697552666
