32
 energy: -59.122668947887 gnorm: 0.000636700141 xtb: 6.6.1 (8d0f1dd)
N            4.15548609077440       -3.17735647454006       -0.34307720738637
C            3.41995173885480       -2.29363098053604       -0.30350521704760
C            2.50806750449123       -1.21652486736792       -0.23523617886364
C            1.25529178249506       -1.63515103030136        0.28420132105004
C           -0.01779676605282       -1.15857991940368        0.26693405402765
C           -1.10334667196249       -2.05676648882917        0.56446953478142
N           -1.01603838403593       -3.28113376565101        1.12253043639100
C           -2.28144441022663       -1.50953089481226        0.04542553059869
C           -3.52711576600860       -2.13717745366893        0.03428492694614
N           -4.54968072855564       -2.66351313581031        0.03450627833645
C           -2.01049880851263       -0.20381034335755       -0.45300672156426
N           -2.91279252901150        0.49669306189825       -1.16564878949110
C           -0.64942181987936        0.10431484389889       -0.21234865927403
C           -0.13725204165230        1.39378399540382       -0.11743053915522
C           -0.87693478593399        2.58446856339074        0.04964917531779
C           -2.22915835099470        2.78435389551271        0.29917853148395
N           -3.34066743160879        3.00285762489922        0.51424925673581
C            0.06803414246524        3.64111031126331        0.13605528689076
N            1.30012989410990        3.23769255518710       -0.01485804923369
C            1.27392104520076        1.87520174702186       -0.17413100710344
C            2.47539758374936        1.32198593675368       -0.49343734319857
C            3.00798427734230        0.01305904869058       -0.67690005672111
N            4.23069208201837        0.00430316717299       -1.25750545104001
H            1.32864784816993       -2.65428312348401        0.65689348285443
H           -1.86605506584526       -3.79438043875392        1.28260071279224
H           -0.19658888760246       -3.56058038058973        1.63121424110555
H           -2.73998063026044        1.46214212599287       -1.38803091873769
H           -3.87903045297907        0.21793297909499       -1.10763349889354
H           -0.16604074713175        4.67538249627429        0.31905719168720
H            3.22576308123547        2.09645796185592       -0.62638959724442
H            4.68207471172720        0.86821809880103       -1.50155182694636
H            4.74003279683907       -0.85780942791231       -1.36376876980521
