30
 energy: -54.911726592247 gnorm: 0.000925488275 xtb: 6.6.1 (8d0f1dd)
N            4.76115256640745       -1.79954356206108        0.73183958670859
C            3.74395912862676       -1.30749669649673        0.51216854574354
C            2.48998042623453       -0.73403732038288        0.23586099125097
C            2.38646248339888        0.63259134029037        0.43789478285020
C            1.42988060867779        1.60307622042503        0.16000672521760
C            1.78973215090220        2.95679399669116        0.26774318469509
C            0.72540872551376        3.78957951852884       -0.05102177413852
C           -0.38093355253639        2.99481032290603       -0.32968233403214
N           -1.61227085611539        3.38969510663070       -0.68525797322576
C            0.00313428154162        1.59707718446478       -0.20826384532599
C           -0.93911350474869        0.60597806871278       -0.22876755361428
N           -2.27410838481352        0.88563520136974       -0.27057188301303
C           -2.92034801267471       -0.20798947162104        0.11838139412153
N           -4.24955909658191       -0.24785204273163        0.25559840771209
C           -2.04179996109525       -1.31425454907329        0.36034426929392
C           -2.46121126610790       -2.58549850271083        0.73007905556064
N           -2.86842976878367       -3.61666529455589        1.04013566228833
C           -0.76019147765474       -0.86283329954799        0.02942168458930
N            0.24775212800260       -1.64738292049307       -0.19730296045178
C            1.53290401323106       -1.63127020231255       -0.36210207875044
N            2.03500863065645       -2.65052216705819       -1.09795267243218
H            3.30980126902490        1.06557855659263        0.81565216976656
H            2.77133035482413        3.29493497801875        0.54948147866188
H            0.74607737468135        4.86332410748194       -0.07467560994441
H           -1.86724168696404        4.35752947802356       -0.58896202871264
H           -2.31294835091175        2.64895299543037       -0.66439772244126
H           -4.69599512363858       -1.09776514271939        0.55267064869547
H           -4.80459894670710        0.55003370713378        0.00300639992080
H            3.02413955760916       -2.83530669229376       -1.08966962127197
H            1.40533742700241       -3.37557669444031       -1.39955234822139
