30
 energy: -54.904314509338 gnorm: 0.000797255708 xtb: 6.6.1 (8d0f1dd)
N           -5.31753318573240       -0.17133093121833       -0.81907081971775
C           -4.21561309390297        0.01489644970564       -0.54261849566185
C           -2.90030291805503        0.32565992170391       -0.22445359992651
C           -2.39048935232375        1.66933509493622       -0.10624467585193
N           -3.12043843502042        2.77278430602513       -0.30991783019503
N           -1.11407226290340        1.69926081172938        0.22864250211586
C           -0.67188551111467        0.39907206123067        0.26695191631698
C            0.65286049226217        0.08704010540297        0.14655999860267
C            1.65001615431861        1.14900829099019        0.15344382810178
N            1.36626767938558        2.42902629946889        0.38744857278099
C            2.90322090041267        0.58545397784444       -0.07419100272432
C            4.12302320303217        1.25537926648440       -0.10327880713026
N            5.13876043078387        1.79660944552466       -0.13583114340240
C            2.73379044872780       -0.81839882828598       -0.27028167881117
N            3.78042947109071       -1.62390838556815       -0.55230336695167
C            1.37204798882141       -1.16488872072897       -0.14477208840588
C            0.97512818781378       -2.48867514103232       -0.38998206467752
C           -0.14102463205653       -3.24479867865623       -0.12601567896103
C           -1.32937957056230       -2.86577789322234        0.52445906618905
N           -1.97956342398924       -1.76155131556612        0.49142451293566
C           -1.84960314031072       -0.51642058579719        0.14144944146650
H           -4.09321621232479        2.69031684153525       -0.54733687894210
H           -2.72607460208387        3.67673872559000       -0.12102896780276
H            2.08358396509421        3.12943941039408        0.31012294778213
H            0.36726562955035        2.64445148021479        0.42490346936300
H            4.70682030529004       -1.23555252527828       -0.50705338319680
H            3.68746010810661       -2.62307922820392       -0.52927355158161
H            1.78912329353988       -3.08661419174015       -0.79017539385041
H           -0.03764202504007       -4.30986860340921       -0.28945100206738
H           -1.83426133090576       -3.64466055737118        1.09387696480284
