31
 energy: -54.607949014206 gnorm: 0.000615686751 xtb: 6.6.1 (8d0f1dd)
N            5.42743425421194       -0.28404325098527        0.20961385312991
C            4.30637170727327       -0.03953864555631        0.10785865143754
C            2.96950828744394        0.31849182978681       -0.02661991810147
C            2.53466350418479        1.63871214281836       -0.41105467573253
N            3.37733367235853        2.65051552985498       -0.70095226800971
C            1.15525715216890        1.65447759904851       -0.39340895577378
C            0.66022362602385        0.36545089531510       -0.07708070496203
C           -0.69293783046923        0.09717298207420        0.06674768462358
C           -1.67829083565094        1.13920533837709        0.22783749902174
N           -1.44473479740695        2.42907328407042        0.59623376892987
C           -2.94801675091570        0.60440642498730        0.00617784892277
C           -4.15622872148596        1.28626138754159        0.11134354691296
N           -5.15940276749814        1.84124620003176        0.22011932263412
C           -2.80248064134448       -0.77748409919175       -0.32747742286521
N           -3.84319669686425       -1.57708172632565       -0.67729682696008
C           -1.45462364774257       -1.12557495132316       -0.21451442162304
C           -0.95689979916641       -2.40572188559744       -0.52917621294761
N            0.01573508412044       -3.04644242134657        0.00343306010092
C            1.06822311260386       -2.81247153831697        0.75136072461002
C            1.98711536140795       -1.79167350067591        0.67606269531841
C            1.85592002624960       -0.50179360425971        0.13688129893881
H            4.36063864326959        2.45749418787181       -0.78864910021026
H            3.01956650993412        3.49953150737346       -1.10191919459021
H            0.55493753233521        2.48319253278261       -0.71501978841878
H           -2.24930490211605        2.95179946734210        0.90760292843086
H           -0.57672262552228        2.62269623502945        1.07007998986667
H           -3.71616962256463       -2.57348519979983       -0.67939846213846
H           -4.77431522861373       -1.23445823033976       -0.51000910396647
H           -1.54007315308735       -2.99828359344069       -1.23380226679823
H            1.31417700532630       -3.65414137430990        1.39427618739790
H            2.95799671323821       -1.99551777453557        1.11325015172304
