30
 energy: -53.315387235711 gnorm: 0.000909725101 xtb: 6.6.1 (8d0f1dd)
N            4.52709449925543        0.71844311681024       -0.80582054988454
C            3.26347626953872        0.38385385761610       -0.47730439800378
C            2.21677372610162        1.25496754666623       -0.15406564609669
C            1.08724917778352        0.45710150438575        0.03773457775070
C           -0.23136780635496        0.85238496841272        0.19023543852771
C           -0.64185105077688        2.19100178098937        0.54423908550422
N            0.17233631941229        3.18721929006994        0.99452839115001
N           -1.94736303495787        2.37463740607040        0.42727396868371
C           -2.45025647202632        1.21009260904085       -0.05677208459414
N           -3.79199732201802        1.13288493337411       -0.35706671289046
C           -1.48037836291125        0.21014105746443       -0.18016060949851
C           -1.71425031918657       -1.08642086669330       -0.73418999108384
N           -2.72977883540449       -1.20014740337623       -1.63515169338513
N           -1.18064680994497       -2.20955611359904       -0.35039546713752
C           -0.17313661442911       -2.41698771583554        0.49748294762834
N           -0.42105721282015       -3.30050119540046        1.49983986100355
N            1.07260673495247       -2.05061501759539        0.35362365534939
C            1.63827159177545       -0.95121646090323       -0.06574294691469
N            2.91556266032603       -0.92776637503015       -0.40731608573168
H            5.11478888522650       -0.01198260002160       -1.16795513689763
H            4.75076228152360        1.67375587784569       -1.01854280944852
H            2.26270445671198        2.32364377435366       -0.22290992334166
H            1.02446472918932        2.89641149472333        1.44701766112141
H           -0.31877337466441        3.95488855343652        1.42592756831015
H           -4.31585286892305        1.89434701566401        0.04906826728474
H           -4.21294575070748        0.22507669795343       -0.22417957962782
H           -2.81412251927616       -2.08395578976409       -2.10867398460842
H           -3.03085489805742       -0.37066261912516       -2.11675679033120
H           -1.27728638649882       -3.82592164434135        1.46517258696984
H            0.37357189286100       -3.70388816999149        1.96599922299245
