26
 energy: -47.991636165868 gnorm: 0.000777249929 xtb: 6.6.1 (8d0f1dd)
N            4.97402199977864       -0.27120120612529        0.10754996974369
C            3.83687480269054       -0.43364267092182        0.13833074284849
C            2.44960945377330       -0.60081807815755        0.16912774753288
C            1.74901544534558       -1.68658997007725        0.71292281382120
C            0.38251149684787       -1.56699858029642        0.46173314177677
C           -0.43153387517841       -2.66252894992635        0.77300501514678
C           -1.65285459451300       -3.10179017593300        0.30432249284663
C           -2.55573549719904       -2.36390756861008       -0.46761535116797
N           -2.79639255708525       -1.11083667624467       -0.32162782933647
C           -2.34466561307791        0.01452453365344        0.08097149613363
N           -3.16313318977817        0.99004623094857        0.51090591281381
C           -2.47148281249051        2.11475210688614        0.43886607906128
C           -1.14658095684740        1.95402558031122       -0.01949413863306
C           -0.28205794106468        3.03606794003081       -0.14406416760311
N            0.38325066330937        3.97182928136566       -0.24436830693877
C           -0.94602115345996        0.55443122836964       -0.14576050080265
C            0.19668041094904       -0.21315808434233       -0.15154009618898
C            1.51884593318923        0.30298537303465       -0.38116241170405
N            1.86010832835443        1.38104739539926       -1.10741754050371
H            2.21564149078360       -2.52676966682717        1.19440182161305
H            0.11196039973546       -3.41319118430180        1.33886066451183
H           -1.89664416505065       -4.14163232081389        0.47285191191179
H           -3.21867415131095       -2.88123282123653       -1.15460502678658
H           -2.92153101337541        3.05032520554395        0.72225062464119
H            1.17152532894951        2.06454551471843       -1.37542588691773
H            2.81750174602433        1.69272510285262       -1.06758269902098
