28
 energy: -45.844918003461 gnorm: 0.000696418279 xtb: 6.6.1 (8d0f1dd)
N            4.31593987053244       -0.23111143395506       -0.64609573764676
C            3.02003396264951       -0.00274887142970       -0.35064482078890
C            1.97672069261532       -0.94252034234439       -0.33988585440051
C            0.81156059666670       -0.25078859703300       -0.02402591022292
C           -0.45067792021524       -0.83042635717298        0.12448979035411
C           -0.66649834892321       -2.23345200421724        0.27244791680273
N            0.30456022937011       -3.18408713275483        0.55265420113241
C           -2.01832819494821       -2.50216668816460        0.11187600332025
C           -2.67834442070351       -1.30863399789477       -0.19379086267168
C           -1.77035095634567       -0.25636991900732       -0.14072246710159
C           -2.10710340433367        1.09758721127843       -0.38742463371002
N           -3.06304646067206        1.35651549345200       -1.31563185155330
N           -1.73520427449433        2.12288769843263        0.33783444688102
C           -0.68827694269959        2.52677960427320        0.98543890597219
C            0.66227035147354        2.24731403498805        0.79652108686352
C            1.28952459001849        1.15657364922476        0.21730489374951
N            2.61047308312501        1.22528425084579        0.02275397727151
H            4.57639049008993       -1.09284081998815       -1.09151911522101
H            4.91259904212349        0.57031012441973       -0.75660151001141
H            2.05912657116916       -1.96428959550721       -0.65113837825643
H           -0.07650782860922       -4.03487635495863        0.94251363115986
H            1.08809858263637       -2.82772680684803        1.08216548746664
H           -2.47668988496620       -3.47163239971355        0.19265503843291
H           -3.73828042985077       -1.21603545233783       -0.35700791388380
H           -3.47798644226091        2.27263067077034       -1.33921942735453
H           -3.55580232190641        0.58640086585238       -1.73062864311153
H           -0.91799634946599        3.32305986957409        1.69185155459977
H            1.35348701422549        2.99250259751597        1.16990785232805
