35
 energy: -61.503071243368 gnorm: 0.000936607491 xtb: 6.6.1 (8d0f1dd)
N           -5.34052033140670        0.28692808558745       -0.78543146848595
C           -4.23428904332432        0.47976290737471       -0.52276877027235
C           -2.91373954738581        0.74513537276515       -0.19541448366771
C           -1.83215269480782       -0.15287890367817       -0.13892838721239
C           -1.99920650160973       -1.47727686867390       -0.51481461985872
C           -1.28052425232256       -2.65012239991813       -0.29611310694259
N           -1.91732564427533       -3.78651980646139       -0.70890871085388
C           -0.05405585147862       -2.88254230760335        0.35686848433023
C            1.09065286022821       -2.14404639570780        0.56908009568245
N            2.12034164844996       -2.84100718151389        1.15700220723429
C            1.44876391196829       -0.80967436445637        0.18615718787270
C            2.77474751841011       -0.44177927976922       -0.03505456745900
N            3.87970690739952       -1.24788958413491       -0.18280006381634
C            2.88155531919465        0.98609243056258       -0.07701185803245
C            4.05250310703228        1.68765475638905       -0.33559700223793
N            5.03094590262486        2.25076722875159       -0.56766124264698
C            1.62428562526190        1.52259461624735        0.17930160632231
N            1.30801610730340        2.81713597789879        0.30194273327704
C            0.66752912615320        0.42607152437699        0.25095539630961
C           -0.68014225286742        0.68997550989807        0.25511490367359
N           -1.11373820225692        1.97624322557633        0.46272824929322
C           -2.41181726764158        2.01771230946589        0.21127204527456
N           -3.13522132110193        3.14836862753816        0.29980749741445
H           -2.97450856669893       -1.65378806376734       -0.96190421247833
H           -2.86904770408373       -3.73832964781735       -1.02657132113723
H           -1.54256788761967       -4.68927622842015       -0.47899739820022
H            0.04753582261632       -3.91610036720874        0.67990305282900
H            2.86705229633737       -2.31214623179912        1.57434528407663
H            1.90494720126775       -3.72612031133376        1.58441017166242
H            3.70873900344979       -2.18375124551670       -0.51639591780223
H            4.67575756112337       -0.79039655417319       -0.60266327000175
H            0.30328453244294        2.99018189531643        0.38743580963347
H            1.97332606923765        3.51912248353436        0.02610254367151
H           -4.13488338125636        3.09792107438900        0.21228692989129
H           -2.71899501996580        3.96264472438400        0.71406770915949
