27
 energy: -46.908959772485 gnorm: 0.000623298922 xtb: 6.6.1 (8d0f1dd)
N           -4.44650779010142        0.27862058633682       -0.44518746876364
C           -3.31125647077384        0.33005403624500       -0.25947782315052
C           -1.91627337824610        0.43240463292327       -0.04851600499890
C           -1.45710109955879        1.75951261494650        0.04723176894901
N           -2.42269988755199        2.71464943650951       -0.05583160733392
C           -0.16551550251168        2.32262463443876        0.25837024662993
C            1.12546270479018        1.88599427495507        0.23141363170651
C            1.76967654405930        0.65619558627827        0.03290540717946
C            3.16525904214357        0.54641224128798       -0.05922018379788
N            4.11167038370229        1.51204945196314       -0.02520334858626
N            3.58450702603135       -0.76126060309357       -0.16711517227435
C            2.52011454662274       -1.50048687600948       -0.13036041406543
C            1.30115306634127       -0.72077591768700       -0.01743859552036
C            0.09079997609217       -1.34363468847966        0.05445557495404
N            0.08891871598192       -2.71653633870898        0.10001412551749
C           -1.16159338990365       -3.09545962953217        0.14706887945948
C           -2.07017646639894       -2.00957711424091        0.11213770714524
C           -1.31795684585734       -0.85325586762972        0.06138623443628
H           -2.18801875440240        3.68759650899807        0.02145393930375
H           -3.38751804671377        2.45843218828985       -0.18201839182197
H           -0.24120399372260        3.39307130394564        0.42838845765329
H            1.83789359750328        2.69055969068637        0.39388123241523
H            5.04772397529448        1.21704464259323       -0.24535068996436
H            3.86576167808043        2.47015328050569       -0.20052857347898
H            2.55393619608224       -2.57028467179575       -0.19615204291306
H           -1.41691719754012       -4.13934702075773        0.20826686028096
H           -3.13911449034191       -2.09126924146888        0.13397895563800
