30
 energy: -54.890966526691 gnorm: 0.000717734815 xtb: 6.6.1 (8d0f1dd)
N           -5.00675650364020       -0.97291893661552        0.62906985002682
C           -4.08326812766652       -0.30431043557343        0.47851086037621
C           -2.97036478414437        0.51451466890433        0.30390411819913
C           -2.92925158180599        1.93628523347748        0.43349336743264
N           -1.75925789066241        2.45430820559266        0.16542843705226
C           -0.90815136444217        1.40866199352530       -0.07565921597287
C            0.44124900506135        1.60416211007485       -0.16173099280242
C            0.96288098118724        2.94208187296311       -0.36261423124458
C            2.30419443592646        2.87194517475173       -0.48096309029654
C            2.71394009680233        1.50620559906289       -0.25506893106628
N            4.02619273611308        1.13746390468197       -0.24915412742226
C            1.58602902946691        0.71314841669005       -0.05385695429373
C            1.67316958943942       -0.64195750475961        0.43489458640803
N            2.78688828597263       -0.89746362798804        1.18875178904677
C            0.87258142526607       -1.72401400886797        0.11176284945957
C            1.25626584924800       -2.99410145885158        0.56390960317158
N            1.57462405313220       -4.04301282567018        0.91826526280177
C           -0.30091567828176       -1.73740114936611       -0.75764123043921
N           -0.33158454260131       -2.70398796067803       -1.70438509634666
N           -1.35164923760479       -1.01083847412374       -0.62826904604833
C           -1.68691906674461        0.14007687454181       -0.09484142785697
H           -3.76143547721662        2.56190816308050        0.70668438953567
H            0.32249568283618        3.79545176026152       -0.46229317261957
H            2.98719420983362        3.67309818166906       -0.69631878706241
H            4.24154097914365        0.15757936151184       -0.34573752071617
H            4.67343220686473        1.77544364997073       -0.68309662684623
H            2.85180079473301       -1.79899819410321        1.63579901621563
H            3.22490560798788       -0.12476502887836        1.66019771807795
H           -1.20177856581565       -2.85848547008505       -2.18663033048822
H            0.33094209050393       -3.46001556669525       -1.66344137087943
