32
 energy: -59.127557846347 gnorm: 0.000826841158 xtb: 6.6.1 (8d0f1dd)
N           -5.82137833537958       -0.98331850307079       -0.72843721171846
C           -4.73971166177024       -0.66914461789692       -0.49492607437959
C           -3.42574250466467       -0.31150517925422       -0.19470899345500
C           -2.94868201105407        1.00019033884858        0.05700116972403
C           -1.58480993131346        0.98575781530666        0.29205857157709
C           -0.89797390801516        2.13885275491312        0.79527718333033
N           -1.70453349449336        3.01130082961858        1.45403869367377
C            0.41059536588028        2.56194378214498        0.62664260262530
C            1.52815840743454        2.08173227176664       -0.07043279357579
N            2.43073245454935        3.03395852584282       -0.41422101873087
C            1.92639889048426        0.74691056939720       -0.35348814305845
C            3.09534719801487        0.64214881837025       -1.14061691145643
N            3.98835229325640        0.60801789883296       -1.86504074195367
C            1.44324656641501       -0.48892641811415        0.10939256684332
C            2.25858962053883       -1.63249442750859        0.18786140800904
C            3.65296353664089       -1.71629922542565        0.15928797138729
N            4.79484347505135       -1.83600540948820        0.19895642637413
C            1.40270708723989       -2.71808594491224        0.47627159151344
N            0.13925658009442       -2.36305150803586        0.51629109879378
C            0.07375853233436       -1.00777155658546        0.32645844454218
C           -1.15034167799594       -0.40229903655938        0.20011494483207
C           -2.35588676668165       -1.19353852265450       -0.04590167868519
N           -2.36233159947693       -2.52191680887062       -0.17005817061918
H           -3.58018275524033        1.87012956399537        0.01537701022074
H           -2.63732295656055        2.74174963537464        1.70742196632349
H           -1.32537524679432        3.85159390300401        1.85389026143056
H            0.57218106648772        3.56926788549946        1.00225061396569
H            2.23180608491980        4.00612347834878       -0.26160302945917
H            3.29606614556590        2.78107362283003       -0.86192559709023
H            1.70113336934467       -3.73516818596367        0.65926248038634
H           -1.48835907186257       -2.98763830514891        0.07918670079542
H           -3.22433423824859       -3.01084503980617       -0.33983351176284
