28
 energy: -50.646426632492 gnorm: 0.000720026851 xtb: 6.6.1 (8d0f1dd)
N            4.99117419056860        1.05645684020357       -0.79330788776496
C            3.87871058933867        0.90169194959363       -0.54769215144795
C            2.53963741086402        0.63473560609531       -0.25382320033938
C            1.48576803998036        1.50604425697752       -0.19915971372342
C            0.28862361137727        0.75391304204072        0.02488377732721
C           -0.92686493806306        1.38968465488710        0.08931157964595
N           -1.07081358372677        2.71630837355627        0.30163930402774
C           -2.36684536536687        2.88297659611837        0.50492919461582
N           -3.15866719851102        1.80570503974356        0.38371063015542
C           -2.32337771618945        0.82203123441676        0.05837273323246
N           -2.71795046487227       -0.31295238236579       -0.43220934480226
C           -2.26939028372029       -1.52059067129061       -0.55716909347359
N           -2.87057792358876       -2.28097417912765       -1.49842018242282
C           -1.34743896581919       -2.17598333878904        0.32756076948939
C           -0.09840072339078       -1.76854114271456        0.69875863337419
N            0.62308363568984       -2.62037263805617        1.50498310598893
C            0.67079597915242       -0.64164915581761        0.20280453157166
C            2.04567420233255       -0.69925259230266        0.03589488717081
N            2.88988347414165       -1.77465742969069        0.13374731879876
H            1.49730182501144        2.56556051947409       -0.36218042304586
H           -2.77675320815326        3.84530351539213        0.75588347552702
H           -3.60390744149347       -1.87688388684385       -2.05494093191186
H           -2.65998704353707       -3.25810695422350       -1.58399622189611
H           -1.66527864323357       -3.15114627701483        0.67778203849141
H            0.10240762439819       -3.31685266165954        2.01299955248655
H            1.41260975053392       -2.22899292924683        1.99100341206497
H            3.79993374374576       -1.65222000226600       -0.28307119922973
H            2.48118261763110       -2.68850882688972        0.02017865328968
