31
 energy: -54.607901710412 gnorm: 0.000667116758 xtb: 6.6.1 (8d0f1dd)
N            3.10464206749425        2.82135435877223        0.89333375097559
C            2.21256010463858        2.22144614519744        0.48942368762559
C            1.04524246538141        1.54609937066506        0.05436139017233
C            0.01454752361517        2.42397701072191       -0.26438144132199
C           -1.27811079692913        2.29227417940885       -0.73616414791093
C           -2.24572194465553        1.28281665064904       -0.72554019965309
N           -3.42750602602492        1.63534916390587       -1.31703180348912
C           -2.25733477071500        0.02171800428024       -0.07038659498214
C           -3.44203426366188       -0.62190139417826        0.31091302694839
N           -4.72558507173633       -0.10772713092622        0.33650309701332
C           -3.14877676615237       -1.95818312690759        0.69893877452586
C           -1.81454831635636       -2.17517620530247        0.53538222124650
C           -1.18483231258550       -0.96202709578859        0.11672628769937
C            0.18426802022588       -0.95163413836053       -0.04276373701598
N            0.82583727503488       -2.15231703057773       -0.04865817414353
C            2.12157626915301       -1.91775043782043       -0.10300342609543
N            3.04460919407464       -2.88207606552448       -0.16736933331276
C            2.41239878482272       -0.50069131562043       -0.08701411117319
C            3.71820792401351       -0.02743894225130       -0.16537720506527
N            4.83956735373858        0.21117237033788       -0.27040467816802
C            1.18037948314128        0.14491867360580       -0.06627533731210
H            0.33668127096727        3.46112245648769       -0.21025165362722
H           -1.66707949010552        3.22223592067618       -1.14270359922672
H           -4.08958673657267        0.91046480380373       -1.53493213728959
H           -3.44897719357453        2.46606481422832       -1.88394399946072
H           -4.79532473753628        0.88533414225233        0.50620246256645
H           -5.36433908586456       -0.65099408082638        0.89904350091866
H           -3.88004093853771       -2.65901060085050        1.05948032270535
H           -1.26658421031764       -3.07329436839559        0.73739959341042
H            4.02015330407439       -2.64333082466429       -0.20702626966218
H            2.75281673105054       -3.84288715929760       -0.17529530149767
