29
 energy: -51.160874282020 gnorm: 0.000824520715 xtb: 6.6.1 (8d0f1dd)
N           -3.26566625103566       -1.46034926994838       -2.01918646464033
C           -2.45695321427952       -1.36080209403345       -1.21149191236021
C           -1.40684280191609       -1.23061730189741       -0.26743194131257
C           -0.74578789780707       -2.35299221336961        0.07245450835891
C            0.35689156509739       -2.53342697744674        0.99174641625277
C            1.50030821741132       -1.84657205455240        1.07724731409989
C            1.93708382300700       -0.68772782244451        0.32499137480397
C            3.29721757302722       -0.45057155179536        0.01614229250971
N            4.32836894576308       -1.27670198845083        0.20551745283308
N            3.51754221610202        0.78238824679005       -0.54433832054213
C            2.35333878353162        1.37997697399808       -0.54452493964066
N            2.13817302629036        2.55613405152493       -1.12018770031013
C            1.27615258604235        0.51299458481239        0.02846346340892
C           -0.03075565876273        0.93392794619343        0.21793176941511
C           -0.43180636823280        2.29138262229454        0.50704630427510
C           -1.77223108291402        2.31909960127501        0.70837478391212
C           -2.28826965141901        0.99314823794179        0.46800186565851
C           -3.63956959862399        0.64942131639569        0.55893088725647
N           -4.75324531187337        0.39202491049985        0.67918876511486
C           -1.22748500924300        0.14118154794019        0.20648121037241
H           -1.11563104255622       -3.28109814353039       -0.35360584443970
H            0.25531238272901       -3.41451882785694        1.61579563949334
H            2.24172760409604       -2.20867879086370        1.78386280659937
H            4.18412681335484       -2.21378993049914        0.53639165645765
H            5.24710244787298       -0.96920522000449       -0.06102623076184
H            2.90291452375974        3.02057249719239       -1.58000274781075
H            1.21442169738449        2.95487723827336       -1.13079250046831
H            0.24460636494755        3.10877566284048        0.68347893793711
H           -2.37601528975349        3.16011205012127        0.99361585022740
