25
 energy: -48.282565401034 gnorm: 0.000937751820 xtb: 6.6.1 (8d0f1dd)
N            5.36789265865726        0.41541944143047        0.93436034246143
C            4.27552965375792        0.59500884421961        0.62660143749836
C            2.94770076720366        0.83380357384187        0.27189674326254
C            2.32103286204688        2.10601388527861        0.14678513389443
N            1.06363110818792        2.03869867545040       -0.22127764274787
C            0.73693091461922        0.72301462658280       -0.31164646610730
C           -0.57793922327555        0.32570478059074       -0.29682633255086
C           -1.61457341623062        1.31429030197483       -0.36070429834364
C           -2.82607660443814        0.71404315882202       -0.14689830723651
C           -4.09884091096726        1.29799031505279       -0.14734560664711
N           -5.16649092308914        1.72015290589113       -0.12903873638526
C           -2.60054217404890       -0.69036472067137        0.12423418555863
N           -3.59826331153881       -1.55617361516527        0.37223325106307
C           -1.23104988439200       -0.95293710211556        0.01258730067103
C           -0.67162967944654       -2.20002779779719        0.37640917354038
N            0.40742572233663       -2.77570808179663       -0.01513436966477
C            1.43773178411916       -2.35068940270776       -0.72543817505879
N            2.18899245069749       -1.32920584143664       -0.51488396275030
C            1.98892790939970       -0.09892641935539       -0.13321141134648
H            2.79489337640279        3.05726491080304        0.31516483718291
H           -1.42346866511364        2.35129689796609       -0.55693015854719
H           -4.53803964503491       -1.21203778635573        0.47181976813857
H           -3.40537115868167       -2.51059818900850        0.61970338806311
H           -1.28684860580376       -2.82659059217637        1.02179568184201
H            1.81722428653432       -3.07362458271985       -1.44481757409001
