26
 energy: -47.989142575912 gnorm: 0.000348846539 xtb: 6.6.1 (8d0f1dd)
N            4.98374610820730        0.29175033462680        0.89353730012025
C            3.89827188404028        0.40609852843731        0.54196426258817
C            2.55464720544431        0.60654404961941        0.14764112843239
C            2.03900563360786        1.89147698211624        0.37235838837956
N            1.07437304839927        2.47712937583874       -0.25207336869299
C           -0.07281116803269        2.27807158370905       -0.79306139417187
C           -0.99991608151619        1.28744017426172       -0.43571423242833
C           -2.37410782346905        1.45156700847496       -0.46103665258273
C           -2.99307727852139        0.27642474966340        0.01806563837493
C           -4.36046342001073        0.07384175606850        0.21959300771410
N           -5.47606141659340       -0.12484468432599        0.41233332292650
C           -2.00112130194249       -0.68505480393925        0.26716719998438
N           -2.23167082516636       -1.93146966836633        0.73979654872454
C           -0.71858591869807       -0.11014286107974       -0.05261536760086
C            0.40949957767114       -0.86359354308941       -0.31694504890299
C            0.41226177700646       -2.25763833881797       -0.56293660207003
C            1.71454335185265       -2.62119187742172       -0.82218314274014
N            2.58283515253283       -1.60628676943498       -0.63562069245691
C            1.88463231993401       -0.52164984331534       -0.35551136127556
H            2.60274848208316        2.54262665259116        1.03594446173586
H           -0.40514425921431        3.06790614719989       -1.46157252702357
H           -2.89373852201789        2.34882430344549       -0.74125469192712
H           -3.16008416175886       -2.13773075396865        1.07222216898963
H           -1.46771075525455       -2.44974329172972        1.14038809797056
H           -0.45053054322761       -2.87730059471901       -0.70547877670345
H            2.07775169914670       -3.58004985744248       -1.14569285476710
