32
 energy: -59.145132238509 gnorm: 0.000636125256 xtb: 6.6.1 (8d0f1dd)
N           -5.56920191552976       -1.34631426620530        0.78668253652343
C           -4.51080642185582       -0.96664596749347        0.55014440092059
C           -3.23695339653848       -0.47361675451721        0.25061960962002
C           -2.97933883869946        0.81403327965282       -0.30364421561079
C           -1.61737704815058        1.00868624469813       -0.38806563849707
C           -1.08643294493638        2.20883558402786       -1.00344077144842
N           -1.83144236877840        2.68323689468421       -2.03209347834492
C           -0.05246876204290        2.98893890729667       -0.54600261071799
C            0.90064650002032        2.65623148620646        0.45706437462137
N            1.27622099853491        3.61609154235923        1.32962111876211
N            1.59348545919674        1.55681212963699        0.49386460198036
C            1.53637104819552        0.32075800441682        0.11183387902365
C            2.68825436029605       -0.47223863417869       -0.07620306143482
C            4.00468929940623       -0.02477309962687       -0.15563948860208
N            5.10330338131564        0.30884676724442       -0.23028090665889
C            2.28916695938171       -1.82798502168138       -0.11470086037914
N            3.09432234988374       -2.88132951469271       -0.26749899991447
C            0.87082104631878       -1.89414564156021        0.03314767609961
C            0.19943306214755       -3.11510858494746        0.00766855267930
N           -0.25933661698039       -4.17060209860321       -0.02255979923721
C            0.35670240898634       -0.58964141858019        0.09079657427974
C           -0.98346965780266       -0.21956440734734        0.08756919464177
C           -2.02739441505416       -1.11339582625565        0.43507568721182
H           -3.74970641678345        1.52425375216576       -0.54718456066378
H           -2.66041882789220        2.19491730531279       -2.31821885409535
H           -1.63634114996103        3.58414748951802       -2.43154427776395
H            0.02449654625350        3.99001627069117       -0.95165835891512
H            2.05581763448259        3.44305092917688        1.94053554409531
H            0.88770716168826        4.53948456262358        1.27532793350422
H            2.71273743164923       -3.81287545679184       -0.25473736775813
H            4.08418384864966       -2.74953472704729       -0.39043882516242
H           -1.88948889130281       -2.09853540778446        0.83650068294041
