31
 energy: -60.200850454557 gnorm: 0.000868726481 xtb: 6.6.1 (8d0f1dd)
N           -0.81119580754479        4.97044151972293       -0.22807581684300
C           -0.65128678835247        3.83518640042966       -0.15519166439209
C           -0.45166101659293        2.43405739390494       -0.07587422255408
C           -1.57270534074163        1.78515251667974        0.43942836894167
C           -2.04206980191867        0.47901624960104        0.42820722423446
C           -3.32280496082833        0.36995169684315        1.03494709619235
N           -4.32033648179868        0.33293589100581        1.59912589343405
C           -1.53073909655439       -0.72798143244453       -0.09521503296509
C           -2.32691339645984       -1.85271272509179       -0.33080693023271
C           -3.71944357633985       -1.97467698908526       -0.38124091424690
N           -4.84850112148734       -2.15269692452330       -0.48955626761653
C           -1.43727537867197       -2.92022455897172       -0.63222852357256
N           -0.18457839149328       -2.55975883919621       -0.56004496768733
C           -0.14329025049143       -1.21033966697879       -0.27637310427138
C            1.07801295077003       -0.60703748270682       -0.13528046064492
C            2.29326012357532       -1.41507763247928       -0.01466783245002
N            2.31919407038274       -2.74506120627638        0.00778483138046
C            3.37765927365397       -0.54692004519400        0.13751614229818
C            4.70245862268665       -0.93471718041092        0.35145146357223
N            5.78681268417609       -1.27667415810960        0.51834267690450
C            2.90428279999913        0.77600184359205        0.00375305398360
C            1.52427770645199        0.79370827556293       -0.14921454860488
C            0.85244762183308        2.01063144688590       -0.45478175631933
N            1.60902870449607        2.95025637217091       -1.05517701613571
H           -2.30186590942913        2.48277775064631        0.84666143991320
H           -1.71604191756555       -3.92535557468356       -0.89424260614530
H            1.43559486307939       -3.20672719023239       -0.21706101845554
H            3.19414357872285       -3.23124477126810        0.10903684631340
H            3.54881339030327        1.63363167025243        0.08268146863826
H            2.55385232768478        2.74816741686482       -1.33005389618716
H            1.24794037795885        3.87974376879205       -1.20262361398093
