32
 energy: -58.343680994263 gnorm: 0.000730537228 xtb: 6.6.1 (8d0f1dd)
N           -0.33551376966603        4.11548367777043        1.12552036942437
C           -0.36921710035874        3.03131639440435        0.74380935127720
C           -0.45540583701331        1.68310016320811        0.31923668049375
C            0.79344983250379        1.21459942537851       -0.11301633043363
N            1.75742057332964        2.11005098424991       -0.29872534341168
C            2.86663945064156        1.38994585696459       -0.57818884557159
N            4.03096962449122        1.99009691883349       -0.83964691064216
N            2.71599016056703        0.06648450658036       -0.54061136124745
C            1.40309113517416       -0.13789006052888       -0.25762062253016
C            0.91388922985267       -1.38462782338331        0.03926422894529
C            1.81628921357119       -2.49049420478082        0.31388162106201
N            3.14887892768237       -2.41727653987679        0.16088802583475
C            1.06264589227098       -3.56918007932534        0.75327369693126
C           -0.28414261100506       -3.23029638672579        0.64824064253452
C           -0.43643672794925       -1.90609062307053        0.21258671347535
C           -1.69378869096775       -1.41549324791298       -0.21255799496165
N           -2.57223725687088       -2.38551321377745       -0.57712166530513
C           -2.22372943691871       -0.10142083344657       -0.23046126345124
C           -3.55663764567271       -0.02931009468491       -0.68405206475820
N           -4.63515826633375        0.04057867035339       -1.08641479791733
C           -1.76073195555768        1.14941375358951        0.27121048956315
N           -2.74076689316639        1.99706309127539        0.67296037295201
H            4.82378447400593        1.44527527785874       -1.12417800405121
H            4.04324763035099        2.99173260633296       -0.90545571645174
H            3.73971088770407       -3.10902217542339        0.58729415146497
H            3.49525438389144       -1.49709550671498       -0.10769565262755
H            1.45054195616472       -4.51071126376462        1.09436048194007
H           -1.08703487101238       -3.88785479697639        0.93475734360041
H           -2.25072307051379       -3.32997745045102       -0.68149679220948
H           -3.51743094690439       -2.15705356060917       -0.83336724315247
H           -2.51534641749043        2.95669095807032        0.88042231173825
H           -3.70766274349588        1.74025929978625        0.56566735068808
