27
 energy: -46.929770609989 gnorm: 0.000604338061 xtb: 6.6.1 (8d0f1dd)
N            4.41443044007128        1.53806597172255        0.61492984026315
C            3.45557297066789        0.94060561504092        0.39244810676699
C            2.33887543779526        0.15211267575496        0.15007351954624
C            2.34196003896135       -1.27896820469980        0.12647022946784
N            3.40739564650131       -2.05334969227936        0.34754023758429
N            1.14014532435611       -1.79414644961468       -0.14589461071482
C            0.27880535918824       -0.76918977035295       -0.24452280396809
C           -1.08510982605314       -0.97748615098470       -0.26012372768883
C           -1.60999821049390       -2.29207661248973       -0.42408329009105
C           -2.97050400736945       -2.24732664272667       -0.30087431912507
C           -3.34407894516450       -0.92593912872381        0.02380345588661
C           -2.22344092808411       -0.10694292041133        0.04785433833850
C           -2.32317403343817        1.27596509851310        0.41833754566551
N           -3.38770604233388        1.58522498836890        1.20016218797642
C           -1.60388003701283        2.35917476685257       -0.07925472731192
C           -0.38332976609093        2.42007800522612       -0.75132372293083
N            0.68544907696278        1.70785051707306       -0.60921236447562
C            1.03161442634128        0.52891734740322       -0.18938915122247
H            4.29704766560725       -1.64094965247995        0.56779976425754
H            3.31355267563219       -3.04960202698850        0.25941948853280
H           -0.99452121906425       -3.14063372432476       -0.64817105286314
H           -3.65486147140762       -3.06662485039224       -0.42487979761379
H           -4.36547205644013       -0.61458490448587        0.16029266053814
H           -3.61399933356950        2.54524357478114        1.39044815661406
H           -4.01753514034386        0.86788320460349        1.50888083970615
H           -2.09620139657593        3.31895105902683        0.03885553799764
H           -0.21677656264799        3.30465833808231       -1.36370550983746
