26
 energy: -47.221617711880 gnorm: 0.000769652402 xtb: 6.6.1 (8d0f1dd)
N            5.27737408937010       -0.45629480389471        0.46346731691373
C            4.14098004428153       -0.35905434610848        0.32472186135900
C            2.76102378392785       -0.21147930883363        0.14573678985300
C            2.12642039725829        0.99775271135822       -0.27041553865040
C            0.76331686831271        0.80142150223600       -0.28547357542812
C           -0.17227650782357        1.79622521515782       -0.75538002266034
N            0.23956552477001        2.58471383972017       -1.76387657815020
N           -1.31149810154902        2.09989750307296       -0.20824032086152
C           -2.11055427013473        1.42110031802196        0.59848766907564
N           -2.65361868235266        2.09573507075354        1.63372269928406
N           -2.62505415508496        0.23429176953207        0.33843457804892
C           -2.09657522024684       -0.88886160583367       -0.03556194413796
C           -2.80202277416919       -2.06436631901779       -0.33341233114448
C           -1.87294071704219       -3.08570336001670       -0.27453031704096
N           -0.61159127738917       -2.67238170111452       -0.03151016060342
C           -0.64450641643692       -1.34724971790823        0.05050492364636
C            0.51758606487464       -0.58697004360359        0.08874013644237
C            1.78889632333632       -1.17657410670485        0.31595996275240
H            2.64712143311466        1.91482327600578       -0.48237520731190
H            1.14482521003010        2.45102401373767       -2.17644312192866
H           -0.35011344282503        3.33720678716944       -2.07390096381495
H           -3.44025836233826        1.69356642805125        2.11216994264340
H           -2.45997444328805        3.07583060943418        1.73573010093568
H           -3.85855714295961       -2.15027615530301       -0.48237695145975
H           -2.05956306576473       -4.13828770879442       -0.40482230140103
H            1.92978454872736       -2.20014162911710        0.60123827153863
