32
 energy: -59.134262917443 gnorm: 0.000492341650 xtb: 6.6.1 (8d0f1dd)
N           -3.15886204619688        3.95912100471763        1.37689861165345
C           -2.61885312897789        3.09683981579480        0.84473171121260
C           -1.96863779566824        2.03108825262188        0.18250761648564
C           -1.00382563085993        2.46741375276840       -0.83121560416956
C            0.22785768998003        2.02021414604989       -1.06650917149394
C            0.97865828050733        0.97026329505589       -0.40022784439181
C            2.34170108321689        1.10883341861131       -0.17140054521403
C            3.12394206224550        2.24243422314381       -0.39394653107853
N            3.80390360458169        3.15366090282599       -0.56588955877559
C            2.86210854213313       -0.12537306206415        0.35921385010525
N            4.14565773249868       -0.32382737498981        0.72730649595533
C            1.82044778229474       -1.04801661734348        0.36112311930690
C            1.95366513919911       -2.32485204896516        0.89491263242073
N            2.12533635102757       -3.37712853643298        1.33523506017275
C            0.61571048638268       -0.38838920581944       -0.09553340209227
C           -0.63151652937168       -0.98436282191005       -0.24685589520977
C           -0.86457653001016       -2.41789070388840       -0.59786548426438
N            0.05392865035002       -3.26202318337163       -1.05610156742955
N           -2.14279826746148       -2.71801376547751       -0.60689213584689
C           -2.79977208162236       -1.58104969074042       -0.24218739400273
N           -4.12763138836586       -1.59816755648123       -0.10099496852579
C           -1.93241808165564       -0.47061200895369       -0.08204538898096
C           -2.38984481899455        0.78068781373532        0.45877393271172
H           -1.34916804675492        3.32091878429802       -1.40440179698193
H            0.81078462075016        2.54562770041957       -1.81602277866620
H            4.75843712281378        0.46892038121768        0.81319408915756
H            4.39362890028511       -1.17504954904881        1.20228725159231
H            1.03385716529893       -3.10347300546881       -0.88802791627025
H           -0.25286860612785       -4.19495127515622       -1.27925017129416
H           -4.62931697201830       -0.77439344277731        0.17871714288414
H           -4.60736051065188       -2.47665578129354       -0.19101957916043
H           -3.21007960532807        0.69109805412222        1.16735480638979
