26
 energy: -47.205585543450 gnorm: 0.000545702960 xtb: 6.6.1 (8d0f1dd)
N           -4.39705964854745        1.60063486199804        0.63412751905397
C           -3.45229841496663        0.98256721222425        0.41034267185210
C           -2.34944551207456        0.17379599210995        0.16566652837251
C           -2.37534840938762       -1.25536724075388        0.13738488207440
N           -3.44761323997191       -2.01751530724282        0.34820639399891
N           -1.17457175522107       -1.79217125044783       -0.12844771542904
C           -0.30616785883118       -0.78555968165032       -0.23439294407030
C            1.05947507697621       -0.97681602308222       -0.21490965852574
C            1.64264663298959       -2.27370688350864       -0.35602971944180
N            2.94738117884965       -2.24517374047793       -0.24876646657961
C            3.28343142222888       -0.97065356885320        0.05617245006379
C            2.19172296939856       -0.11019962944669        0.08504431958891
C            2.33036719816742        1.27865417928267        0.41875626208415
N            3.39823345789929        1.57795120641552        1.19415122599195
C            1.63051710678270        2.35831273146859       -0.11480719733191
C            0.40946161170937        2.39770076586382       -0.78624979686921
N           -0.65901656518419        1.69322610440273       -0.60601107206353
C           -1.03997639381649        0.53121903423882       -0.18975230063936
H           -4.33083726409073       -1.59995129837465        0.58553164717600
H           -3.36073585125742       -3.01525243120993        0.26259293963580
H            1.10100701132872       -3.17208529990731       -0.57989625168844
H            4.32512168895588       -0.72749884007689        0.17578833712573
H            4.02599840779967        0.85366908244024        1.49306891664101
H            3.65619450764733        2.53668002437527        1.35047159527487
H            2.13584885960375        3.31466968996204       -0.03549619880579
H            0.24196079160784        3.25353772674245       -1.43827237028848
