31
 energy: -54.609897780047 gnorm: 0.000909173825 xtb: 6.6.1 (8d0f1dd)
N           -4.69176537667085        2.15289349571836        1.11943694022647
C           -3.75718899070235        1.68375532072456        0.64285756749647
C           -2.61552913063869        1.10201529620390        0.05081148123392
C           -2.01075451460246        1.93152427506749       -0.98974694234753
C           -0.72639952068190        2.16729363566891       -1.25363960698246
C            0.47811059524343        1.69661292861024       -0.59091312628987
C            1.56334038425596        2.51749782459132       -0.43640937513468
C            2.65293644903611        1.77354506048870        0.11252745111725
N            3.87085579711503        2.28206922259328        0.42177491669294
C            2.25692514469974        0.44108147909048        0.20170302036722
C            3.05486163190939       -0.52781976998614        0.79641532434147
N            3.77650541147280       -1.28135329122326        1.29036492789897
C            0.87227875225491        0.34936677573552       -0.21313932615437
C            0.11485464021622       -0.80557531730742       -0.25218187422057
C            0.65747552422286       -2.17885927094401       -0.46191327465821
N            1.86849469675164       -2.46883061745836       -0.93686174037666
N           -0.26944218434106       -3.09916312941018       -0.34324103629597
C           -1.42056353811314       -2.43667491563550       -0.02554792683137
N           -2.53524554385065       -3.13888245925262        0.21395617894474
C           -1.26986349255586       -1.03260187255549       -0.03276196316429
C           -2.31591296866535       -0.16534953118217        0.41548375061800
H           -2.74797683393056        2.47111445238613       -1.57565017205633
H           -0.51451008831064        2.88190270642495       -2.04224302247866
H            1.60312131917929        3.56525781512510       -0.67335256611307
H            4.50823333244194        1.70287428843617        0.94349415821044
H            3.96181777841924        3.27766456578611        0.52970599342408
H            2.62401486076937       -1.80894642474362       -0.85588094702294
H            2.09329331067372       -3.44508244678508       -1.03766306916256
H           -3.39470909821920       -2.68164507689886        0.46075873512968
H           -2.47067598826918       -4.14063481633067        0.24325514793126
H           -2.99798876731035       -0.62371928993801        1.12861107195741
