33
 energy: -52.428699517597 gnorm: 0.000503837531 xtb: 6.6.1 (8d0f1dd)
N           -0.61412221197094       -3.87923976619432        0.98789113651117
C           -0.32846951595452       -2.63443637784718        0.44232250037440
C            0.90286955637780       -2.10846567776289        0.67805389215672
C            1.58752263133845       -0.97807603854583        0.14322855724919
C            2.95580983104796       -0.92775452352993        0.06605729575342
C            3.36105653936739        0.36352716544223       -0.39436380528892
N            4.66241420571788        0.73258047610283       -0.61212943139149
C            2.24114587482906        1.16184832572546       -0.49529702360702
C            1.10024850587537        0.38132599305401       -0.17720727662778
C           -0.17273849002737        0.87675280226208        0.01157737724241
C           -0.46127627077987        2.24947772242971        0.46049883023780
N            0.46927832686665        3.18887135996655        0.75404963050683
N           -1.74176151007190        2.44857681055046        0.65466284524419
C           -2.36415292195742        1.27960190006509        0.28846944575767
N           -3.71796276874732        1.18110250456076        0.40281645663402
C           -1.46355753755620        0.27628492225113       -0.06173370047701
C           -1.85035818373693       -0.96675043747158       -0.70528669698127
N           -2.94897451079811       -0.82771404499685       -1.56669323261167
C           -1.35059146419499       -2.19602054551817       -0.48385081133260
H           -0.02872556510455       -4.17613545606952        1.75234626118155
H           -1.58917921206582       -4.10755890740961        1.09360755851339
H            1.54171775603703       -2.72274394975512        1.30859296007174
H            3.63170214740624       -1.73579076529792        0.28307654307187
H            4.81080028255997        1.55431504287566       -1.17590671058979
H            5.32153651631155       -0.01371247461674       -0.76390534967567
H            2.22038696216847        2.15973591265041       -0.89403055337559
H            0.15224101824128        3.93690438928168        1.35038871074182
H            1.41163066140139        2.85471534941328        0.88944522370119
H           -4.22037596246068        2.05156983392864        0.44259273995821
H           -4.15186885228537        0.40658800988405       -0.07324546146763
H           -2.95766833628706        0.04448454199989       -2.07684246512147
H           -3.10335542898466       -1.62586837848170       -2.16719632944637
H           -1.82295944036302       -3.02032109824620       -1.01073887541368
