28
 energy: -46.653093928638 gnorm: 0.000776470799 xtb: 6.6.1 (8d0f1dd)
N            4.38812120953069        0.45224827741590       -0.29478061730198
C            3.38407107471718       -0.10591544320112       -0.21026180999438
C            2.23139519541383       -0.87991524074866       -0.08021287062837
C            2.31892903297061       -2.27401854012300        0.22557020213911
C            1.06532959349538       -2.78575599766976        0.34786279561479
C            0.10869871544993       -1.74648438868471        0.12278487101115
C           -1.20432770402292       -2.05260532927507       -0.06321428769671
C           -2.34135845438105       -1.21642555227194       -0.31241122029480
N           -3.35651305840055       -1.78406396699985       -1.01195516343780
N           -2.60106699311425       -0.06677353778086        0.22299494465752
C           -1.93472008319069        0.97048345835598        0.67381978063008
N           -2.56108811260449        1.69559438850095        1.62557549861776
C           -0.75901926410994        1.50230802514020        0.09048562671412
C           -0.56975174772988        2.86643961146847       -0.12669080343387
C            0.66418222102460        3.05479298045520       -0.75975986023644
C            1.29486403263508        1.83168002240814       -0.87054978140380
C            0.45243028135684        0.81973939805714       -0.36139422096518
C            0.88691551085946       -0.49235847456494       -0.11504281228505
H            3.24853023377356       -2.80245842757781        0.34288862182046
H            0.80357421950217       -3.80454998688005        0.56568765727546
H           -1.44264887608001       -3.11155207102583       -0.05554475282317
H           -4.15577682503892       -1.22076115077875       -1.24381515887286
H           -3.21416563357378       -2.65024760420866       -1.49863223081476
H           -2.17799407221909        2.58232790215013        1.89859737422186
H           -3.48449495890552        1.43385513563717        1.92406995262915
H           -1.28989755207218        3.63971365329481        0.07774903415536
H            1.05669944589216        3.99921884413877       -1.08995571174239
H            2.26232423382323        1.66651761406861       -1.30168198785460
