29
 energy: -46.346052484692 gnorm: 0.000680555592 xtb: 6.6.1 (8d0f1dd)
N           -4.73642899143222       -0.51181633332501       -0.08739922988584
C           -3.59179361596623       -0.46372658906966        0.02320247884671
C           -2.18808091903977       -0.40608310589204        0.16048503794534
C           -1.68217965108632       -1.53794829982631        0.84242985139728
C           -0.46720953836193       -2.16074460953463        0.85141041420933
C            0.75256874018464       -1.91199187882381        0.19173231187874
C            1.68049169300837       -2.91215465962303       -0.00327010834853
C            2.83525124097690       -2.37642048041878       -0.62234928672381
C            2.70276035074983       -1.01725184809599       -0.71397284042290
C            1.41422441787909       -0.64147911409115       -0.22489076775954
C            1.02869215678349        0.65629725061423       -0.00961510927920
C            1.98219592758760        1.74462523236137        0.15536527693764
N            3.34211661077753        1.59785693670443        0.29205163549865
C            1.29093181282095        2.92739212072920        0.23603880402384
C           -0.08142037028804        2.65722382253974        0.05879345521855
C           -0.29852591209683        1.29312182877085       -0.03110556211643
C           -1.59202821006320        0.76923816835354       -0.32849961931096
N           -2.39424563243440        1.59809134411743       -1.04454117327632
H           -2.46732091088234       -2.08617366813167        1.35578441074241
H           -0.46218919192498       -3.10975072820273        1.37883992805640
H            1.53099090936804       -3.94991365662777        0.23269391731130
H            3.67542463224713       -2.95546279832112       -0.96335629775745
H            3.38268110501660       -0.34721806822980       -1.20446634288093
H            3.65591867644368        0.69408955585747        0.61406502935143
H            3.80549204358166        2.38126296189968        0.72764292862784
H            1.71574941539033        3.89868760055985        0.41052869664623
H           -0.84242221979630        3.41788515916503        0.08208515700744
H           -3.37268272201147        1.38862486842905       -1.15303403338044
H           -2.04722276433413        2.48942387890903       -1.34828817225318
