27
 energy: -46.132344010521 gnorm: 0.000447551601 xtb: 6.6.1 (8d0f1dd)
N            4.31221158030002        0.24343797876414       -0.83320202139504
C            3.05492032908803       -0.02500989252486       -0.42824311940881
C            2.56561983883515       -1.32298981233355       -0.12219851354513
C            1.25255477215372       -1.21082569054028        0.26520860851424
N            0.58232270792475       -2.14371613310852        0.92002859667680
C           -0.66678615490600       -2.42228224118486        1.05628377332253
N           -1.66924671317005       -2.23236887764937        0.22006226269952
C           -2.02544633849711       -1.17764023168121       -0.45021785467956
N           -2.89942941501095       -1.36161184289652       -1.46514609210166
C           -1.69813011321513        0.18430362804777       -0.11779413502500
C           -2.58278377483353        1.24485216702403       -0.19098300910176
N           -2.00846282850570        2.43617525093011        0.10156771033721
C           -0.72260556021395        2.19178088603187        0.27615244659490
N            0.15919801012524        3.19176092072062        0.57597131745467
C           -0.40630079045479        0.78109076205914        0.16895463276774
C            0.87027492436257        0.24999727873579        0.11888879394702
C            2.04558559028273        0.92177068478657       -0.21820949401457
H            4.91842976640825       -0.50974319886365       -1.10603113383737
H            4.55749455419585        1.17714952834785       -1.11203461449782
H            3.14002140808086       -2.22831008327578       -0.15051148787074
H           -0.89880275555726       -3.09195548224548        1.88395381080224
H           -3.37230550503525       -0.56723317277241       -1.85784658578453
H           -3.27377007042437       -2.28281960338892       -1.61622611476885
H           -3.64121547905309        1.20430884856333       -0.38274629650786
H            0.96676820561780        2.92422298813130        1.11664999355595
H           -0.29077090245226        4.04768912390937        0.86447001937340
H            2.13476933355451        1.96700058311353       -0.44338062500749
