30
 energy: -54.904354828438 gnorm: 0.000367686386 xtb: 6.6.1 (8d0f1dd)
N           -4.89324645351089        1.06304638879215       -0.71156222126943
C           -3.77814545830817        1.01916279062445       -0.44383475822301
C           -2.39432991368257        1.03749472452665       -0.13138081413446
C           -1.86420473085196        2.33295830940223       -0.04366802038864
C           -0.65761881736745        2.87640640771500        0.30369531410833
C            0.65923477715119        2.40436094267940        0.52441669426814
N            1.49080580528345        3.37194967538800        0.98676454384373
C            1.27433939324261        1.16362901688321        0.24252406901877
C            2.65818458665487        1.08522755350460        0.07598003393899
C            3.06213657397289       -0.24880805778172       -0.07735326239552
C            4.35949099192096       -0.70581266930133       -0.30611414726758
N            5.42129097538475       -1.10757165689491       -0.49285927250248
C            1.92468927172522       -1.06776770538441        0.05063973716661
N            1.90881774704868       -2.40454303256331        0.02988681945898
C            0.76914181469094       -0.22181096897276        0.18925690470531
C           -0.48856637614684       -0.78816851313019        0.24553765981398
N           -0.63424818194096       -2.13036197932352        0.33552349108833
C           -1.95180647417117       -2.35785410610961        0.26549835356842
N           -2.48292820898336       -3.57899855716676        0.33428321402858
N           -2.71853725759641       -1.26459606711135        0.10435330219906
C           -1.87140590636446       -0.23630157421323        0.09325547659362
H           -2.62790238948942        3.08364658896541       -0.22973758115058
H           -0.70728289634965        3.95640094219555        0.41133731633257
H            2.44077173534942        3.16213157357592        1.23037909485647
H            1.15170160262521        4.30555454715161        1.13669077552743
H            3.34524895458916        1.90853277660361       -0.00807341007137
H            0.98448110770172       -2.82646186157773        0.10688568639675
H            2.74387119871411       -2.91540157454471       -0.19706530797614
H           -1.89720621238448       -4.37924135296368        0.48647517122800
H           -3.48213917130133       -3.66814721087772        0.29627925002855
