29
 energy: -50.381210445439 gnorm: 0.000736074634 xtb: 6.6.1 (8d0f1dd)
N            4.60773409796274        2.21394514201312        0.07480477351016
C            3.51364243191505        1.85983066532841        0.06444363625702
C            2.17701951239617        1.39811552834323        0.04446690418638
C            1.23963951076951        2.42617332829272        0.03660217580719
C           -0.14000770409568        2.49391608273293        0.00027032074923
C           -1.16912632803520        1.56272004646700       -0.02048671403551
N           -2.41504365908078        2.04247181166229       -0.05504932693155
C           -3.21857195562915        0.96052072035597       -0.03979175710318
N           -4.55015277806519        1.08434799174870       -0.08495547502899
N           -2.60223809188294       -0.22016616452337        0.00566850979497
C           -1.26958299878980        0.06429479674651        0.01126999472254
C           -0.34777811547382       -0.95176035822192        0.03239744921507
C           -0.76254528181702       -2.32444133568771        0.05102789417406
N           -2.03805618820493       -2.72443205060350        0.10313322467628
C            0.36497059355720       -3.15024885668970        0.01828281004862
C            1.50911157825143       -2.36432493281685       -0.01257472714888
N            2.77259732024855       -2.86874796105275       -0.00149344230717
C            1.14460179889199       -0.97530100169289        0.00993271907754
C            2.11383896949887       -0.01824232047761        0.02356805373085
H            1.71005746947829        3.40618655914784        0.05485251378680
H           -0.53970056812747        3.50147966601952       -0.01285205303621
H           -4.94547422458001        2.00613304717012       -0.05635237266024
H           -5.13416894897950        0.27356306774897        0.00270718550306
H           -2.72032695953753       -1.96529210882245        0.05726592411403
H           -2.27112817873313       -3.69800713161323        0.03107336704520
H            0.34680994228739       -4.22535417401649        0.01684667680431
H            2.87441563349041       -3.84897171519166       -0.20070761216710
H            3.54371674174464       -2.28250648668153       -0.27153272267772
H            3.12051327383899       -0.43143589678547        0.02825191919358
