33
 energy: -63.661035981219 gnorm: 0.000486221885 xtb: 6.6.1 (8d0f1dd)
N            5.73522064640798       -0.73055891806740       -0.89773629681069
C            4.67392906486557       -0.39271931997884       -0.61161676633265
C            3.37811457288638       -0.00149076948257       -0.27411028566538
C            3.01459548054201        1.17693340759754        0.43288794565042
C            1.64491009999086        1.26497063370224        0.49576124549004
C            0.92479545333404        2.30364548364179        1.18869450351152
N            1.41425298511695        2.72976012850224        2.36647935630127
N           -0.05845640267820        2.96484588017219        0.66597397544029
C           -0.99525983699054        2.76209409775111       -0.21223128335709
C           -1.76598589028706        1.61807541347810       -0.40530115632742
C           -2.96130354918473        1.82346448669792       -1.13106860913231
N           -3.89206871404298        2.01994648913085       -1.77313140121590
C           -1.50604791105975        0.28617921351809        0.00961429534045
C           -2.51912474402074       -0.66156150356031        0.12530788477575
C           -3.90116143934356       -0.46301717999344        0.18332207756930
N           -5.04303601498254       -0.40678967848618        0.30100865955630
C           -1.93703649450760       -1.96048083153473        0.29257025396216
N           -2.62310368200836       -3.08470089118751        0.51380804006043
C           -0.54293053513561       -1.82181659821141        0.19825790431897
C            0.31074919435036       -2.89400194022380        0.45103962672609
N            0.95126352318399       -3.82623077192079        0.66811858875752
C           -0.21161441098368       -0.43998307421603        0.05575178596900
C            1.07850457627183        0.04661646702607       -0.07392787500385
C            2.21620004754020       -0.71480433561617       -0.56626734940177
N            2.16694450989507       -1.78659884044674       -1.38865349675964
H            3.71728828270122        1.89869552111659        0.80827456232171
H            2.27029668677966        2.34550136896862        2.72439524103671
H            1.00332301937208        3.53056772519532        2.81542587620949
H           -1.31628477113471        3.66131883631788       -0.73096116255745
H           -2.14092981265923       -3.95601885776747        0.65852583273762
H           -3.62516540962584       -3.05139802117204        0.60272891227840
H            1.34086610777643       -2.35611821938188       -1.44056032424778
H            3.04137044122989       -2.23420070296545       -1.61057854040228
