30
 energy: -53.313199383515 gnorm: 0.000716397174 xtb: 6.6.1 (8d0f1dd)
N           -0.26946397021496        3.76163501352581        1.03929868621212
C           -0.15259628055290        2.61516566691840        0.31399438574816
C           -1.30229821619305        2.26042831957812       -0.46436749075241
C           -1.88341051075843        1.03672493703894       -0.65552763265499
N           -3.09811297080312        1.03564742690191       -1.32268097691240
C           -1.49831801521105       -0.24847628416377       -0.13586235462684
C           -2.39391943072383       -1.30712526056336        0.06198673352537
N           -3.76205258213455       -1.30233681056850       -0.02275385232194
N           -1.78768529298248       -2.49398585364163        0.36733576627915
C           -0.49411941750461       -2.25808369973118        0.32617697086210
N            0.46207249196424       -3.15688646209621        0.54865760170900
C           -0.19707546957925       -0.84260810336356        0.07480245703540
C            1.09044470566264       -0.39261177103352        0.05885899309045
N            2.17825230235830       -1.22036057072347       -0.02334320478959
C            3.19240105693814       -0.40426465609611       -0.27939388381624
N            4.45303910883517       -0.83816852654772       -0.45454657835830
N            2.91463023628032        0.92709658510530       -0.31684002735497
C            1.62047211358947        1.00009737439138       -0.04567556085115
N            1.04253616937417        2.12131093353166        0.29502860148848
H           -1.17283286863276        4.15864122592089        1.22114059392911
H            0.51105000986149        4.03395794590750        1.61105646035427
H           -1.86752599022329        3.11304576346190       -0.82506511532951
H           -3.29410037820509        1.85933381497578       -1.86997539961904
H           -3.35654338941108        0.16704254506972       -1.76310842322996
H           -4.21768088417916       -0.42673369361538        0.18477168213234
H           -4.17931471893055       -2.11857596269209        0.39823047814738
H            0.22298194241892       -4.11136835250938        0.74584658905803
H            1.41388375894442       -2.81198169308505        0.42356602129382
H            4.61383414298427       -1.82229913266080       -0.57120716147224
H            5.12007855052836       -0.17919148623606       -0.81344325287530
