29
 energy: -51.154120964142 gnorm: 0.000865451631 xtb: 6.6.1 (8d0f1dd)
N            4.40423478363276       -1.14031695219922       -1.18741145704200
C            3.47810221768002       -0.65788951682013       -0.70956724680497
C            2.33641133371812       -0.03155974454461       -0.15252961330371
C            2.52108771029315        1.30916462054210        0.12516358307111
C            1.71104693388909        2.28345259869657        0.71026987084333
C            0.33828269293083        2.44444383860752        0.74301634437777
N           -0.14766270630573        3.50067877954001        1.43769045110726
C           -0.65264052314844        1.73444091113003       -0.02979643091476
C           -1.76166484262086        2.36224195517823       -0.56576083591799
N           -2.63484195981585        1.50768468611991       -1.15250617000239
C           -2.20441761486784        0.29462998336647       -0.90688949381455
N           -2.75391026493633       -0.77437690208569       -1.50199870776045
C           -0.90345444093480        0.32001855992354       -0.18014733844617
C           -0.17504161805851       -0.77668013452060        0.18996927298376
C           -0.71405073765503       -2.08718120740569        0.49094885578880
C           -2.03989569446816       -2.39060608624818        0.79537996906477
N           -3.12885066904902       -2.66849243946794        1.04920773127049
C            0.33814817385955       -2.97110914334629        0.63633139654810
C            1.54392961924780       -2.28946301104093        0.38435924998461
C            1.29008786253828       -0.94717475667084        0.17915724618793
H            3.53842930274601        1.64628031051328       -0.05434283914488
H            2.26464816074846        3.10380536282729        1.15533158161994
H            0.47137157213271        4.09426652243947        1.96172757764402
H           -1.13473450441217        3.67954334123583        1.46473052362197
H           -1.96473258910599        3.41786731355003       -0.60185159950211
H           -2.62397092881248       -1.69954825926401       -1.12837180048920
H           -3.59630921596013       -0.59371372984212       -2.02369437869145
H            0.24887115071696       -4.00654536553803        0.91146495504490
H            2.51796227131828       -2.74239581537624        0.39176157637530
