29
 energy: -50.371678289009 gnorm: 0.000879709613 xtb: 6.6.1 (8d0f1dd)
N           -5.01459622044545       -1.25721081313068        0.49666876625420
C           -3.89436838060755       -1.04550168050678        0.34072631225706
C           -2.55309310636398       -0.70537118101601        0.16286508353220
C           -1.44204507559229       -1.52661494760327        0.24674402416955
C           -0.27604943161593       -0.74945283166432        0.05562381877227
C            0.97102098218205       -1.36286905856304       -0.05296359427034
N            1.02468742442305       -2.69015129138743       -0.17255150594147
C            2.32149905803300       -3.04057634349892       -0.24887364686952
C            3.17885124555289       -1.96902059869669       -0.12665933266817
C            2.37413826298557       -0.81875526525480        0.00941954823768
C            2.87335196232615        0.40131411257617        0.39407352287634
C            2.22165679048890        1.64516080113481        0.58773280297621
N            2.85594332383112        2.54189707867989        1.38806323951888
N            1.19678744294595        2.12703130850629       -0.06169528085857
C            0.07074762686880        1.73742811348457       -0.58303832510035
N           -0.49045221324663        2.62145727430361       -1.45246843420953
C           -0.71877810081313        0.61954193973549       -0.19013118464001
C           -2.11195300580457        0.62160789703899       -0.14836029457348
N           -2.97084761342257        1.67499829780061       -0.37550475110245
H           -1.43393706460069       -2.58053403541688        0.44017731594556
H            2.58134531484194       -4.07533161129056       -0.39360229277269
H            4.25118183402139       -1.98896414117184       -0.13937895644488
H            3.92948410465283        0.41105136204961        0.64517970913655
H            3.64448160186288        2.26190247167957        1.94158696381245
H            2.41480262093100        3.42471777059337        1.57445775556097
H            0.09616412939967        3.35877590649642       -1.80603561955723
H           -1.25874947516140        2.31046185247420       -2.02211897471157
H           -3.90950921345181        1.52549940153760       -0.03393088790368
H           -2.60587830092134        2.59577349451023       -0.18287670612651
