26
 energy: -47.211080797643 gnorm: 0.000601201884 xtb: 6.6.1 (8d0f1dd)
N           -4.80977610780299       -0.35326121019896        0.60172633649114
C           -3.79721316540493        0.16742263261971        0.43448274560786
C           -2.55518946193640        0.75586549728699        0.21912782364835
C           -2.25510459948740        2.09851555511417        0.04463667354400
N           -0.95193619082025        2.32059936669946       -0.17827435808247
C           -0.31523662552000        1.15120609059062       -0.13064650932977
C            1.06907652006126        1.11237577049231       -0.26120149684405
C            1.84556081592199        2.26286081777360       -0.58018626675375
N            3.13939365469025        2.03706115684601       -0.48932014396969
C            3.28471280550993        0.76846252853562       -0.05453059862997
C            2.06503589980844        0.11753248362329        0.09281291713534
C            1.89352045973844       -1.20724647684510        0.57947401567712
N            2.77341015594217       -1.66189577002278        1.48898342313435
N            1.05517540748853       -2.08876017901991        0.09815682266102
C           -0.13433753895941       -2.14055046249486       -0.41204331988274
N           -0.40152136368000       -3.20793439562451       -1.19290231952875
C           -1.25858623829999       -1.29846511259732       -0.10252267264443
C           -1.31346433672174        0.04756586832671        0.07364194119144
H           -2.94409808847080        2.92435847312227        0.07663455990680
H            1.45206340864969        3.21393727882506       -0.88087114232419
H            4.26953158556815        0.35558077259582        0.07845652379923
H            2.74397972991143       -2.62446479980611        1.77791302165534
H            3.51850294671641       -1.06594814869044        1.80175007520997
H            0.34217879527775       -3.83439145355107       -1.44651573139977
H           -1.31671792680215       -3.34228711529527       -1.58310049187667
H           -2.21353891707835       -1.81533178210543       -0.10048164629566
