31
 energy: -55.405519027571 gnorm: 0.000920600632 xtb: 6.6.1 (8d0f1dd)
N            4.90280772723236       -1.52256112181152       -0.94155516062193
C            3.83495197785492       -1.23052019487411       -0.63795679961896
C            2.52066914026303       -0.84250029563763       -0.27552278375661
C            1.69984045075015       -1.93223320842946        0.08162084956442
C            0.34797739945311       -2.09480025019879        0.25557323151743
C            0.01047197800165       -3.42045180485914        0.63744475971301
N           -0.23425331902144       -4.49081900783936        0.97150681192730
C           -0.79867737131217       -1.26654519738408        0.02732329997700
C           -2.02991481495242       -1.85024430175646       -0.13316422213342
C           -3.02752268047566       -0.84494451137780       -0.29935174416072
N           -4.32544497617206       -1.07138371273430       -0.53841295964681
C           -2.40540209339281        0.40189789208044       -0.17805477128132
C           -3.13367703231460        1.57284180132716       -0.37722300892727
N           -3.84224721894980        2.45958529993087       -0.57553370692956
C           -0.99651319523039        0.20584956571950        0.02831816002683
C           -0.13439198588520        1.24913756865108        0.27312926920373
C           -0.62871744410449        2.55253046465157        0.60289325834544
C            0.40302203283432        3.43810851122310        0.69113770318577
C            1.61312086315960        2.76274772916267        0.37763880904925
N            2.82327299089278        3.37032953340927        0.40544341639688
C            1.33419870069649        1.39632167980275        0.15367034857405
C            2.35326942216232        0.53347614477773       -0.22814699297802
H            2.26642905636338       -2.85219023359931        0.20992380540606
H           -2.23111907105827       -2.90538993452610       -0.15329075884262
H           -4.95639506892473       -0.29681321400196       -0.65716971552149
H           -4.67318244783284       -2.01008218930917       -0.61985099149215
H           -1.65647542251055        2.78033934266828        0.80294749258096
H            0.33386444105185        4.47759026007714        0.95422817771405
H            3.63531453963443        2.90294042668607        0.04033210049791
H            2.84687020462554        4.37470575092199        0.42927744648224
H            3.27814507786154        1.05227771865132       -0.47316918145193
