30
 energy: -54.921357030555 gnorm: 0.000680347183 xtb: 6.6.1 (8d0f1dd)
N           -5.48894475308059        2.03403784510771        0.48130704425376
C           -4.46226297267583        1.54093498514688        0.32455839543132
C           -3.22015439571996        0.93350845564827        0.12238086238399
C           -1.97455580687162        1.49420403204293        0.36741692380041
C           -0.97640212972027        0.53521894055911        0.08988299947318
C            0.39163124925672        0.84753188794473        0.06535068130289
C            0.92460570795134        2.11751058402180       -0.03106619855908
C            2.32314167474294        2.03354982720194       -0.21995716039039
N            3.15332862388491        3.06420699165274       -0.41501137392808
C            2.71503698238932        0.67151368644556       -0.18997406418525
C            4.02573623950860        0.22090620825865       -0.30817450424234
N            5.12675672028930       -0.09628526126346       -0.42070226065278
C            1.56521070585100       -0.10269093481040        0.05667418098480
N            1.61348492332390       -1.33687537332847        0.44660105985718
C            0.70693851596084       -2.28337692741826        0.58781931290731
N            0.89760509423910       -3.14080373475683        1.61303336068279
N           -0.20878594126735       -2.60873753339149       -0.30863304796432
C           -1.12333663991603       -1.88698073556915       -0.88852226238923
N           -1.71750201054463       -2.41847226980786       -1.97178811184444
C           -1.66917734948174       -0.65189434424622       -0.38284417725682
C           -3.02371926023785       -0.37586319536740       -0.38669999575000
H           -1.80009904088270        2.47989603955504        0.75445391488298
H            0.37110545273726        3.03704698351655       -0.04758499617931
H            2.81367405815687        4.00941453809803       -0.38792700313643
H            4.13363811118642        2.89523598156385       -0.56527000099765
H            0.38865602871567       -4.00701579659678        1.62009647436978
H            1.74942570717586       -3.06781547399033        2.14190248347674
H           -1.44226602359874       -3.33331079087599       -2.28428259393957
H           -2.52275615799157       -1.97205811859854       -2.37267689864679
H           -3.81538601907548       -1.04923464815095       -0.66350856713184
