27
 energy: -46.140373150976 gnorm: 0.000758068307 xtb: 6.6.1 (8d0f1dd)
N           -1.08230042543565        3.37184717657976       -0.91861933861185
C           -0.78057299691785        2.21858760631559       -0.26168950948725
C           -1.82666866320843        1.62896015026945        0.50063855260858
C           -2.13311268475544        0.30489408112208        0.70394510643558
N           -3.24598528363089        0.05201260220274        1.46113428649497
C           -1.58363664933224       -0.86361363056860        0.06472347800292
C           -2.35800207807744       -1.98750881618963       -0.17115276535804
C           -1.54991827719814       -3.02715790699070       -0.68633354692960
C           -0.25518653132811       -2.59208283744441       -0.71522073775219
C           -0.21743923779838       -1.23006477585345       -0.29643399436619
C            0.97767013440859       -0.55376097105575       -0.16601088090514
N            2.17059503208023       -1.16162448440408       -0.13814007016450
C            3.04062225547384       -0.18966157799116        0.17759164541464
N            4.33884983660435       -0.43993049789639        0.35919344484906
N            2.54093199475315        1.05981228832447        0.29978577048626
C            1.24541854301371        0.91819363271386        0.03609709324275
N            0.48734785264527        1.93514035945288       -0.23927378297173
H           -2.03830184641212        3.61601322107857       -1.10069933890246
H           -0.35310426454143        3.80378171206611       -1.45916459010776
H           -2.53843668031555        2.34256772854964        0.90176736452116
H           -3.63563683278031        0.79782761553407        2.01054059272302
H           -3.40394433907572       -0.88767837793332        1.77663985242257
H           -3.42404218936152       -2.05890677921529       -0.04213225916135
H           -1.91180297607068       -3.99179421648415       -0.99449016026169
H            0.61611942585183       -3.12914063818896       -1.03537915039613
H            4.67825156868498       -1.37644463679971        0.23984479862092
H            4.94986909232417        0.31052715620632        0.62325280355303
