32
 energy: -59.137571034885 gnorm: 0.000895870913 xtb: 6.6.1 (8d0f1dd)
N            5.81721838298774        1.03385600531520       -0.68114231551629
C            4.74210193942853        0.72490190244053       -0.41283933234962
C            3.42656796022746        0.37206422345392       -0.11341051808957
C            2.98306174727098       -0.88209246791980        0.39099877843412
C            1.60869893612942       -0.88116344872133        0.46433453054038
C            0.81843306071380       -1.96504603791077        0.98328251158666
N            1.30782485964145       -2.64623158672549        2.03436102132264
N           -0.25534261462279       -2.42677923101041        0.42608976041834
C           -1.15278134223057       -2.02133442899014       -0.43906688274279
N           -1.54000739684305       -2.92937773369757       -1.35922085927706
C           -1.87943472300803       -0.79247465000923       -0.35805022610172
C           -3.14142452737378       -0.82623290658826       -0.98336212679020
N           -4.12416846996772       -0.92109485213041       -1.57390760359477
C           -1.48407244805170        0.41734386704821        0.22985384629952
C           -2.38173680216032        1.45353968430059        0.51886720708593
C           -3.76927032877548        1.34884275570309        0.64634834058844
N           -4.90660944063175        1.30351592952027        0.80792426800144
C           -1.64631981463318        2.63632869543512        0.77649638984549
C           -0.30722599884776        2.38956652246329        0.58583891552377
C           -0.11193153269534        1.01734029812145        0.30507080735032
C            1.13083213525935        0.44459879236370        0.10179161292285
C            2.31451101268557        1.19644357693853       -0.27006286530774
N            2.33529813325539        2.46983310389579       -0.74150099549833
H            3.63406314151325       -1.70672316519553        0.61920430880266
H            0.81774327890410       -3.45370879516781        2.37813762795535
H            2.17689201171299       -2.37118354213167        2.45443579137393
H           -2.37959179823049       -2.77621318072501       -1.89366616979322
H           -1.14424981297240       -3.85309689436771       -1.32440891869400
H           -2.08389346636270        3.56752570597348        1.08864360010582
H            0.48281780282850        3.08634197106183        0.79184220370694
H            1.47853049003576        2.86038298348247       -1.09817727848798
H            3.19288125141264        2.78126630657339       -1.16963096152282
