32
 energy: -58.347368150583 gnorm: 0.000609578181 xtb: 6.6.1 (8d0f1dd)
N            3.18404386156461       -3.03037212473297        0.69083957536847
C            2.08050068333706       -2.71811453124779        0.56495990735057
C            0.74221311780430       -2.37431274370430        0.40520835612563
C           -0.31564770595768       -3.22156785377609        0.69517952089522
C           -1.51756745234240       -2.50587546660860        0.57609385457270
C           -1.24481447386508       -1.17845516603697        0.30163785717756
C           -2.26993303183380       -0.24789289356313       -0.07166741362374
C           -3.42775964007841       -0.82585513161631       -0.61702116669175
N           -4.39136013425885       -1.26621256524368       -1.06975546624371
C           -2.28307980096603        1.14149048684525        0.05549818927903
N           -3.27080235703385        1.85515011313536       -0.54988642372794
N           -1.50318371692299        1.87098361809240        0.87023230799347
C           -0.23115801836242        2.01514379696538        0.93990785548075
N            0.24135852982118        2.89198627657290        1.87179550968292
C            0.75520104826560        1.43447618204906        0.05042845238931
C            1.90103729312798        2.08628012602659       -0.42803134152585
N            2.23093385597644        3.38747448498682       -0.28768901265067
N            2.74407568236267        1.24354762835009       -1.09220055375763
C            2.23672302532886        0.03827441113526       -0.96820968475467
N            2.72120686888681       -0.99786141948569       -1.65253017632895
C            0.95067275215561        0.05034574457057       -0.21543782257073
C            0.21144318194872       -1.05183146526286        0.15430759974533
H           -0.22185884988724       -4.25295267529463        0.98416748641295
H           -2.50061241975144       -2.92065946125120        0.70066936664670
H           -4.05283764447610        1.35976471523443       -0.94642788216919
H           -3.40582929532994        2.80905494105204       -0.26212727685599
H            1.20762555879438        2.81656910109783        2.14305253283122
H           -0.41087042014699        3.17700408125075        2.58504165397130
H            1.51374053356587        4.04331914921745       -0.02928607424418
H            2.99973620887599        3.71442034469021       -0.84785169516736
H            2.46061717970603       -1.93913368728549       -1.40616379317933
H            3.59590316349053       -0.85466692916284       -2.13014615503277
