30
 energy: -50.870999981721 gnorm: 0.000683616850 xtb: 6.6.1 (8d0f1dd)
N           -3.38653487623565        1.95408893368244        1.53512158799503
C           -2.49411054185539        1.57122101324709        0.92269307359206
C           -1.31840665354958        1.14952531845942        0.25276562124383
C           -0.44437678214659        2.17571681572406       -0.02137913432171
C            0.79364948012855        2.22188343244103       -0.67567532485082
C            1.84418006149214        1.33638926833808       -0.76418693206420
N            2.93978330834235        1.76704526650175       -1.47710921804961
C            2.05688314995464        0.10005102998871       -0.05370123491725
C            3.31291404847625       -0.31704636065596        0.36195871699231
N            4.49415771633108        0.37984864343133        0.35628080337289
C            3.23071724380251       -1.68268165832831        0.81629317246909
C            1.97080465316652       -2.12643957040916        0.62198182898831
C            1.15480076831309       -1.03259796640836        0.12890985617768
C           -0.18696451223852       -1.20105600307627       -0.08872226545895
C           -0.78573095813907       -2.50386376908691       -0.25902328083822
C           -2.11928994866500       -2.36525236219000       -0.43554231625039
C           -2.45808586277609       -0.96973094298956       -0.29205895085128
C           -3.76463499777193       -0.49324772029440       -0.43071643391470
N           -4.85089777523600       -0.16520718290529       -0.61516283853161
C           -1.29766070397689       -0.23789352709265       -0.09898760545101
H           -0.84184464407851        3.15846106587910        0.21722873206248
H            0.99705728987573        3.18638065538087       -1.13250143925579
H            3.60313670348088        1.07201661686469       -1.77592594382397
H            2.80462904235801        2.54534945466610       -2.10195117244195
H            5.21223097282642        0.01993461932221        0.96504708403007
H            4.42471721765364        1.38524698190907        0.32889143873908
H            4.05691042327392       -2.22772549723667        1.23536723623621
H            1.58711073646816       -3.09008830675829        0.89235772597396
H           -0.23150868919389       -3.41888196362544       -0.33756549858737
H           -2.83625119138038       -3.13721407547836       -0.64684115726413
