28
 energy: -50.659142050059 gnorm: 0.000310377845 xtb: 6.6.1 (8d0f1dd)
N           -2.94054955552788       -2.94380415212923       -0.10883506557022
C           -2.48572029116703       -1.88656977634296       -0.04890466901379
C           -2.09094802374640       -0.55538851196260       -0.00102593142991
C           -3.04376739369731        0.50119720632560       -0.16069652370107
N           -4.35532597723642        0.33813998929394       -0.35110389128482
N           -2.47495381584058        1.70529589877288       -0.10009762940880
C           -1.15374835726446        1.52197973617312        0.07679360322871
C           -0.40647418066781        2.64073068117932        0.38770179932534
C            0.96073332012119        2.80166737692616        0.63448039336693
N            1.98430109437497        2.16862913256637        0.17456587670087
C            2.28379669567536        1.00842977918907       -0.35805566512276
N            3.34797919609097        1.01039989661167       -1.19369096268286
C            1.75750305364406       -0.23966450810891        0.04561621308622
C            2.48236334229942       -1.43550703760046        0.14235021305902
N            3.83504417618263       -1.62616293036381       -0.03549805604321
N            1.68735512241245       -2.48651043478733        0.44857690781747
C            0.45189924942567       -2.02688181559783        0.49870074152103
C            0.37003010188672       -0.62561182189693        0.28052429350203
C           -0.83387745128589        0.05559323144403        0.11811883913822
H           -4.74805060992176       -0.58632406296815       -0.39438003681289
H           -4.93724261611700        1.14733585447058       -0.47550206297790
H           -1.01459623468401        3.52270279584096        0.54556477274304
H            1.23456230329680        3.68023692209447        1.21684524434199
H            3.71261602047325        1.88974839032951       -1.51734830486531
H            3.60366881313423        0.15997320363821       -1.66444370308091
H            4.42705077418591       -0.86380084138385        0.26135412441158
H            4.13349452695478       -2.52763490342768        0.30976622995476
H           -0.36297291920655       -2.68881767738096        0.72069142419627
