30
 energy: -54.886220689560 gnorm: 0.000827043566 xtb: 6.6.1 (8d0f1dd)
N            4.53203487344522       -1.31112368383389        0.53040071221417
C            3.39465580686766       -1.33439361133195        0.36777408966653
C            2.00733469101955       -1.43877099307041        0.24590911128775
C            1.29039503040805       -2.65602299922624        0.37005110811130
N           -0.00504897467717       -2.48605808450842        0.28756470172310
C           -0.23932867929481       -1.13490623825779        0.16593611728518
C           -1.51779274210166       -0.68873779397164       -0.01398319695285
C           -2.61626492943615       -1.60508499716626       -0.40607474900962
N           -2.43886761175153       -2.90581729162438       -0.59582547294104
N           -3.74415290874648       -0.95300948797643       -0.60231026311912
C           -3.49270380937507        0.33671982416359       -0.27885486931686
C           -2.17260896921403        0.58962043349056        0.07412305477635
C           -1.73332133920178        1.83036686528040        0.64881011367554
N           -2.72958922493481        2.53826070714702        1.24229676044041
C           -0.49851901339730        2.44287481337081        0.61022186370698
C            0.74684739413213        2.14621380751940        0.01855397866529
N            1.50410318078243        3.24230905892752       -0.24026752682237
C            1.38263302398941        0.90522859990046       -0.22826860822639
C            2.63698001937206        1.01235196781397       -0.86908835023248
N            3.60761116338116        1.14497237677537       -1.47327303938443
C            1.04925796581588       -0.42111656566165        0.12375784288358
H            1.71761533905745       -3.63170868323034        0.52141972689260
H           -1.52660280498808       -3.26704660338640       -0.30800735437228
H           -3.21308786306974       -3.47710536531284       -0.88538245016709
H           -4.29657049363565        1.04782105843976       -0.35956379540300
H           -2.53070669818164        3.40955512980659        1.70150576054420
H           -3.62605721460924        2.11208353713550        1.38799075552182
H           -0.51798505941185        3.44960792493707        1.02058275012318
H            2.43711324441445        3.14361706676504       -0.60517407564445
H            1.13088324124064        4.16416153788891       -0.10416877002825
