31
 energy: -54.604488329369 gnorm: 0.000936800241 xtb: 6.6.1 (8d0f1dd)
N            4.62611877777143       -1.05243074572530        0.64529788408054
C            3.49696530988261       -1.13713027935162        0.44813154113349
C            2.12211515471250       -1.30406300626476        0.27308806631006
C            1.44941839815619       -2.56622316772127        0.26917460411111
N            0.16476066732416       -2.42841829304031        0.11360762556892
C           -0.11040574559064       -1.06738300714094        0.06827287998109
C           -1.41880159566517       -0.64592377390761       -0.06267437586492
C           -2.48750822267606       -1.59561724645432       -0.50486440978308
N           -2.19676144469869       -2.84020000749325       -0.88122905443950
C           -3.68205893958930       -0.92877182130539       -0.50475330713296
C           -3.44347462775679        0.38589198128197       -0.02651107513916
N           -4.40468060972808        1.30856357786282        0.14304120928934
C           -2.06081851910035        0.57628312382840        0.23106377844481
C           -1.59368713542864        1.71571503745571        0.97087283522350
C           -0.41417406828672        2.35062210303493        1.02268476122827
C            0.78546417340964        2.20344653707448        0.21036686244220
N            1.32717022583054        3.39754445539509       -0.14569721879746
C            1.43989214488593        1.04833586121216       -0.14590823613968
C            2.61450602094387        1.20972277100319       -0.90943431801206
N            3.53380022149173        1.39035214485820       -1.57749345047977
C            1.13251300906164       -0.33163293977645        0.15173182437718
H            1.90735476033100       -3.53311947900073        0.37675316808289
H           -1.25175465191294       -3.14492130716404       -0.61234261460617
H           -2.93590717130534       -3.48873949806112       -1.09117568156267
H           -4.63930771984799       -1.31661690324478       -0.79600754627849
H           -4.17948522140318        2.22799548271914        0.47850412585674
H           -5.36460282835413        1.07656398121265       -0.03804595564690
H           -2.36301069267884        2.13897904856916        1.61385157457016
H           -0.35341334719044        3.20669079414919        1.68648602353759
H            2.16798744564563        3.42486928982680       -0.69843543722072
H            0.87280805416639        4.25771170117244        0.10083693106550
