26
 energy: -47.224096629096 gnorm: 0.000751104651 xtb: 6.6.1 (8d0f1dd)
N            4.71838552449337       -0.32509379191485        0.88958987701330
C            3.70369953452646        0.13297211945627        0.60215342171659
C            2.47729198978698        0.70152505396757        0.26607457877142
C            2.20557971413650        2.06363792951723        0.03765821523460
N            0.94945504139575        2.31353341049246       -0.30254387279818
C            0.28384871707936        1.14122274826706       -0.27374414798293
C           -1.08991314897855        1.09703124985886       -0.34198979316778
C           -1.86794277612699        2.25283848473218       -0.68515726121631
C           -3.18788489160537        1.95446161340340       -0.54195826561666
C           -3.30058051089696        0.63021878812594       -0.03058139013388
C           -2.04676023291601        0.07290654155069        0.07680498669553
C           -1.79358374636645       -1.21782211115196        0.67292838840683
N           -2.61702176296758       -1.59203458830225        1.66933172469496
N           -0.95086387386178       -2.11568886254728        0.25772297880589
C            0.13586178980705       -2.03154744458595       -0.49298624884278
N            0.32223172183384       -3.00232939717817       -1.41254227991269
N            1.16631211500245       -1.24339263103731       -0.26382512390066
C            1.27273954760550        0.02545703867524       -0.02091017790996
H            2.91551519780541        2.86926517390619        0.11619263179784
H           -1.42641943084193        3.16889044988373       -1.02365105511257
H           -4.02081681198183        2.59830296239688       -0.75702595100001
H           -4.23166514474101        0.13828229690491        0.19100725549073
H           -2.50813263722620       -2.50304647457112        2.07925684916419
H           -3.32504373456672       -0.96771731039216        2.00864875347120
H           -0.32686345139723       -3.76802782876747       -1.44921762128663
H            1.24291133710569       -3.12029756008906       -1.79882420398340
