26
 energy: -47.979203560168 gnorm: 0.000477581629 xtb: 6.6.1 (8d0f1dd)
N           -0.71831193798668       -4.55240403484244        0.21795565762550
C           -0.47076508564969       -3.43418474060345        0.15112533418797
C           -0.20570888202805       -2.04099977155628        0.07216153046521
C            1.14994188327663       -1.74494020681555       -0.02131833520464
C            1.91150478969344       -0.57882535779273       -0.07084493340994
C            3.30679252011952       -0.84891467727612       -0.18612624446163
N            4.40837413051197       -1.14525076447839       -0.29417569367588
C            1.64689827078443        0.79817107536785        0.00894863653191
N            2.70401381179501        1.59117880296669        0.03535072254508
C            2.26380672272733        2.86929301473809        0.11199818381470
C            0.89334447449819        2.95705904740429        0.10567853084161
C            0.38965929350409        1.63408775419582        0.04698351482622
C           -0.94687341055882        1.32143377084032       -0.01705139926029
C           -1.95951367564003        2.31266069574870       -0.08162463184950
N           -3.18352676499208        1.81830648443338       -0.10683860492952
C           -3.07992001068387        0.47730128568838       -0.05046464644279
N           -4.19581342448724       -0.26806832934537       -0.05430345535440
C           -1.71546985807247        0.04213785259518        0.00012646843097
C           -1.39695063125817       -1.28345504087262        0.07207828863561
H            1.76755515452366       -2.64052056156031       -0.05400249045511
H            2.97799813278368        3.67083053930233        0.17052677697842
H            0.31874109120752        3.85854757957447        0.15923758031446
H           -1.81877951389825        3.37533164273826       -0.12206902672777
H           -4.17727746923741       -1.27093447802557       -0.05867383465594
H           -5.07474727820450        0.21295370510467       -0.12388086161130
H           -2.26846199282873       -1.93316210002954        0.12258474773976
