27
 energy: -47.710634182723 gnorm: 0.000676124892 xtb: 6.6.1 (8d0f1dd)
N           -4.94351917804099        0.25858425776393        0.21993747269908
C           -3.80434477553378        0.41255922779119        0.22295690712744
C           -2.41710608091102        0.57464561065778        0.21891563756951
C           -1.69861066987151        1.65387958865699        0.76791407371116
C           -0.34715924695368        1.54782260890644        0.46321955820323
C            0.48006101345331        2.63879239096076        0.77619842957106
C            1.67355333456444        3.09162431238066        0.26904554002335
C            2.54648903830167        2.38968981426879       -0.57900938605637
N            2.80738058325065        1.13621894767069       -0.52232775698518
C            2.37387110426782       -0.00030821569060       -0.08443951382098
C            3.20890481874631       -1.05578409249909        0.30000074382008
C            2.46835922419244       -2.22314404053730        0.28231849244541
C            1.13636945158673       -1.96423906599163       -0.09979153634727
C            0.21207542604159       -3.00118427491902       -0.16389314140300
N           -0.49106681205464       -3.91403570909750       -0.21420030215657
C            0.97380911160489       -0.55422931820226       -0.22085724808431
C           -0.17216365249134        0.20643255663087       -0.17778849957236
C           -1.50530295342060       -0.30756481338837       -0.38136240051303
N           -1.86462302183592       -1.34795354355787       -1.15687123745809
H           -2.15251024035981        2.47821180333514        1.28749902914035
H           -0.03767799520219        3.36432066721562        1.39611674193474
H            1.93945752308461        4.11845513274448        0.47917832402663
H            3.17727450514425        2.95563805355026       -1.25935942558852
H            4.25425238473274       -0.96418208564145        0.51887080018575
H            2.83748907890443       -3.20599118036435        0.51777234459386
H           -1.18410453280134       -2.02691092757450       -1.45350559142769
H           -2.81896383069863       -1.66604768486946       -1.09662165723792
