30
 energy: -50.070456420676 gnorm: 0.000846533786 xtb: 6.6.1 (8d0f1dd)
N            4.19095933272066       -0.84158432770721       -1.15920594915089
C            3.15389759181904       -0.72048018290730       -0.67379373876151
C            1.86673114300779       -0.60295705938002       -0.10982380348059
C            1.18562631749605       -1.79990050826193        0.08163780679320
N            1.85614011254814       -2.95299889048034       -0.20963693552426
C           -0.07737047704440       -2.02609575400500        0.71349013261512
C           -1.27474901612082       -1.38496980221760        0.66090067188950
N           -2.34825613190253       -2.00992959714428        1.29551864534908
C           -1.65910411899423       -0.19383474273660       -0.05981662216842
C           -2.92890348035610        0.00587874907669       -0.58424941754721
N           -3.88148773095666       -0.92833758415333       -0.84278954053283
C           -3.07904207838345        1.39923418141682       -0.94196747762537
C           -1.95889555373689        2.05624948353126       -0.57912315273073
C           -0.99596788356220        1.09020203759130       -0.07830680085205
C            0.27382324953398        1.48549114687867        0.24369853961181
N            0.52785996205537        2.82163778959118        0.44015742384055
C            1.82065614963707        2.94356024358804        0.59573148422556
C            2.51057202444651        1.71277244543033        0.45068648374894
C            1.55194019686932        0.74262166647910        0.26229205016500
H            2.75379253481412       -2.90387056609362       -0.66104715026060
H            1.36581981284242       -3.82833967437792       -0.21183678875487
H           -0.09596477367772       -2.97210525135856        1.24946556917067
H           -3.04622871707293       -1.38001662260491        1.66150311828432
H           -2.09342877149011       -2.73862108527288        1.94624381895108
H           -4.80397208322714       -0.62524669175388       -1.09779213501611
H           -3.76163842248265       -1.85492682990036       -0.47104879279273
H           -3.95819844759188        1.80674005323853       -1.40723833047737
H           -1.72401853511245        3.09552883379082       -0.69225214717294
H            2.26040089163201        3.90155821822245        0.81437205422350
H            3.57351139299025        1.57348822682099        0.50013637198082
