24
 energy: -43.771170771706 gnorm: 0.000731993515 xtb: 6.6.1 (8d0f1dd)
N           -4.53056814191265       -0.22594372530233        0.70927634094535
C           -3.48988414948103        0.18085011191630        0.44095488910844
C           -2.23048613882253        0.68632625910784        0.12215400860266
C           -1.91028263757387        2.01184748116878       -0.22516127023698
N           -0.63111728330039        2.19727207000059       -0.51685132179679
C           -0.00196343502760        1.01819943881584       -0.35067063399780
C            1.37013278996479        0.94821310806701       -0.25572350476799
C            2.18651069478881        2.10308398759812       -0.44884552720781
C            3.46593195595140        1.82268142150929       -0.04760166541026
C            3.50134697507429        0.50657592605189        0.45995941047191
C            2.25344032333047       -0.08505547935162        0.31447336726629
C            1.99533591924740       -1.39132602406833        0.77605852606822
N            1.12050482200335       -2.26606684949223        0.41428882138250
C            0.04098980981130       -2.16538623639511       -0.35923912742902
N           -0.15753383814470       -3.16829261630248       -1.23730166595005
N           -0.96151419684900       -1.33262963499514       -0.18119774359114
C           -1.03866594101246       -0.04707379256088       -0.06005799295303
H           -2.60110374875090        2.83629106268846       -0.26823168684812
H            1.80419478849777        3.02730152790513       -0.83559227947087
H            4.30675925314210        2.49053863425529       -0.08849849206822
H            4.36751600489462        0.02116143027808        0.87225848263477
H            2.72233966562984       -1.78304487159892        1.48492647202920
H           -1.06195702186497       -3.26301176834284       -1.66647959846739
H            0.47054210310418       -3.95291638045234       -1.23016124141373
