34
 energy: -62.587355671852 gnorm: 0.000602009901 xtb: 6.6.1 (8d0f1dd)
N            3.56103791496789        2.22293782209271        0.95148480788510
C            2.54413278172481        1.85849389780069        0.55367746169669
C            1.24526190782471        1.49815849581842        0.15126242885985
C            0.33054853188552        2.59594589562086        0.07167650165042
N            0.65196920732894        3.72950215338561        0.73184587145849
N           -0.69844981627560        2.67544027021376       -0.73043954550560
C           -1.70322192625369        1.91966173653184       -1.07156110812849
N           -2.38514170967633        2.29268207616447       -2.17372337003972
C           -2.23965565062601        0.86600964216295       -0.27456045132957
C           -3.59425241077021        0.63608390846923       -0.08908853163024
C           -3.77793415469244       -0.47546849315932        0.74690932631253
C           -2.54299517882173       -1.02855816077296        1.02062331928981
N           -2.30647083230695       -1.99328394058267        1.95553521584423
C           -1.52158367048281       -0.23283048859752        0.35807754147221
C           -0.22739320885024       -0.65550086684680        0.10098442611217
C            0.17353161931581       -2.02189236459736        0.03107142729976
C           -0.62645892130634       -3.15936700847175       -0.00101913077086
N           -1.21853399868784       -4.14812274122905       -0.04061108169860
C            1.54963536733100       -2.09277278697583       -0.26547217519566
N            2.26231147155631       -3.20699570905364       -0.47840921949465
C            2.06077745065224       -0.76748500325164       -0.31051832550100
C            3.39479131187504       -0.50278231795186       -0.61991286556875
N            4.49765314095071       -0.39859092405023       -0.93117848603321
C            1.00973837191644        0.14058514161637       -0.10738582922477
H            1.55269653319850        3.81664400128495        1.17261472137883
H            0.10688081178216        4.55669179111465        0.56125257802046
H           -3.22936311629626        1.81267136470393       -2.42561118641835
H           -2.10513521065075        3.11481818553939       -2.67900890273879
H           -4.38820137127816        1.25454476833675       -0.46971728625102
H           -4.72047717629754       -0.83492729945858        1.11398030405480
H           -1.41263702771551       -2.45522989564297        1.95582968427485
H           -3.08759569868982       -2.58262355589871        2.19260981487710
H            1.80776019015013       -4.10403026974510       -0.49070598463860
H            3.22783930751888       -3.13552881957191       -0.75145044931844
