23
 energy: -39.234399865664 gnorm: 0.000674130272 xtb: 6.6.1 (8d0f1dd)
N            1.16741445545336       -3.15923507020449        1.02076962811472
C            0.72883300819243       -2.16779365194342        0.21690890778167
C            1.71846065182425       -1.17076021050465       -0.13216829500561
C            1.58514208907811        0.17299235860432       -0.17622546553687
N            2.74731797342039        0.90618902564311       -0.29803615918007
C            2.43228696762522        2.14401090211932       -0.02021462581586
C            1.05324559683425        2.32932114927094        0.25012628638834
C            0.44341502389093        1.10168831534517        0.11100723843974
C           -0.94948332629719        0.87224210269168        0.14287069270169
C           -1.89474400105194        1.87417075265744        0.37038738333190
N           -3.15055873125462        1.48752182474149        0.07933442418394
C           -3.07333570540551        0.25949110572300       -0.39542449452913
C           -1.74676238806992       -0.24455993774060       -0.36791945504013
C           -1.42248769521132       -1.53799166774353       -0.72238664320023
N           -0.46108615963845       -2.29358509593172       -0.26418260870765
H            2.10126170449489       -3.14578637070932        1.38928050823555
H            0.52595901751547       -3.87395984384863        1.31841449070487
H            2.73337342158228       -1.53388835270379       -0.24131994508245
H            3.18755642224888        2.91166968498767       -0.01881938784423
H            0.58573667143944        3.26787911638066        0.47021144451815
H           -1.71755164534460        2.86912429211697        0.73341097795070
H           -3.95389532341757       -0.28243575277784       -0.68953789685596
H           -2.14663508780879       -2.08475567147385       -1.32278602345301
