26
 energy: -47.984505947735 gnorm: 0.000771896365 xtb: 6.6.1 (8d0f1dd)
N            4.61927445487209       -1.01472099575122       -0.56908329633016
C            3.49620499926298       -0.93337051852998       -0.35722625924361
C            2.09574016921037       -0.95450679760692       -0.08955406258380
C            1.66007846070151       -2.25909069180449        0.32346686783828
C            0.45655807616840       -2.86577593495105        0.37633428292263
C           -0.87189377348090       -2.45223973331940        0.04044512166046
C           -1.48343191020975       -1.25388512214262       -0.05575898237497
C           -2.95393110992467       -1.17928353765230       -0.14834487226829
N           -3.79273133049493       -2.21221550743131       -0.33817653728219
N           -3.39783374000780        0.03336429617217        0.08597702393809
C           -2.31065174866981        0.83052681983964        0.24459256392537
C           -1.10270237988286        0.16281564187527        0.14397062933741
C            0.14357818919644        0.81632048739766        0.07049161418226
C            0.33370727273329        2.19647114771954        0.06840334466416
C           -0.55574271263671        3.24992409008020        0.27669754113864
N           -1.22292919787324        4.17110275876325        0.44734675318399
C            1.72148083762531        2.42315994601727       -0.23322052667455
N            2.38228009098963        1.32145631406407       -0.39980422912921
C            1.50589455920016        0.27774750799602       -0.17098077314421
H            2.50198352465046       -2.88734843511040        0.59866589706716
H            0.49017825174181       -3.90185298495655        0.69560902273557
H           -1.53180321183236       -3.30681230652416       -0.07830548632958
H           -4.77126513285460       -1.98498610953250       -0.39366255590338
H           -3.47891358673690       -3.06943874150074       -0.75617730805659
H           -2.46379572438164        1.87965209887394        0.40940194791089
H            2.19383506093504        3.38484193791391       -0.32591297218424
