26
 energy: -47.994196791031 gnorm: 0.000655315243 xtb: 6.6.1 (8d0f1dd)
N            4.50383547926216        0.42359996336118       -0.93396055881878
C            3.42667513522438        0.69238454190045       -0.63882987460858
C            2.11419197896108        1.08619221015286       -0.35625122654593
C            1.67786236715938        2.44648878346384       -0.38059746076595
C            0.34285322435890        2.49663808613288       -0.08846888548041
C           -0.16391805414406        1.17693369074860        0.03901695584912
C           -1.49566503547249        0.90803899061843        0.25782977238047
C           -2.46394651750202        1.88520627608416        0.71112760398052
N           -3.67462004633946        1.41295652793574        0.72993742467576
C           -3.61731505839019        0.14352621056930        0.22296144974130
C           -2.32834436042070       -0.24435093950375       -0.05147768103735
C           -1.90834981229564       -1.46744339799590       -0.68537010715634
N           -2.65374940098175       -1.93652238432897       -1.69972546464618
N           -0.94753416989296       -2.20906395438372       -0.23808759138293
C            0.17311669348400       -2.08844888175285        0.40669081982934
C            1.13982910490059       -1.07954092067453        0.32399430922920
C            2.40953814443833       -1.48592381273039        0.80396527115282
N            3.39471703969616       -1.85624125157529        1.26022190734684
C            1.02216196640824        0.26527864431559       -0.09015034444942
H            2.31907251062385        3.28005094020939       -0.60328732782351
H           -0.26053900522216        3.38288934722466       -0.06058918797013
H           -2.24418659761364        2.86857473082134        1.08051432919505
H           -4.51909237305108       -0.43264435815068        0.12305144183987
H           -3.49831980792394       -1.46232897369871       -1.96517279344044
H           -2.43451154384347       -2.82910856636588       -2.10923570647407
H            0.45891991307661       -2.98346972057746        0.95359673727967
