25
 energy: -43.471294722263 gnorm: 0.000885442452 xtb: 6.6.1 (8d0f1dd)
N           -5.00077289381589       -0.38957707925190       -0.05041141031437
C           -3.88486679588909       -0.11862701511950       -0.11130527755198
C           -2.51971634103793        0.17230236114259       -0.14709771855962
C           -1.92779351370879        1.39736660363288       -0.49681061489111
C           -0.55291977827013        1.30241835836492       -0.31530998636952
C            0.32569371667539        2.37499867283633       -0.46788737927228
N            1.38242688472041        2.61455102510038        0.23546011418967
C            2.35907315166990        2.03565017462535        0.84146768142607
C            2.96875920457790        0.81057323994980        0.53793058101158
C            2.40823351137221       -0.32998323156114        0.00443000380614
N            3.21684360539867       -1.37415534359720       -0.22864339531292
C            2.44321863444031       -2.42756786113981       -0.49253919612848
C            1.08636276401196       -2.15034360211774       -0.37704414385782
C            0.96595702391544       -0.77909340558932       -0.11069323493873
C           -0.23955380401758       -0.09943118079705        0.04216641622992
C           -1.50069909380621       -0.75074787848995        0.17381436652147
N           -1.72741909671359       -2.04193146570875        0.54064208974703
H           -2.46276359243931        2.28312116419302       -0.78421145001494
H           -0.00021936332536        3.21008766938033       -1.08354863074303
H            2.84000519319908        2.65739990330005        1.59317800408290
H            4.01114361086925        0.70537169511788        0.81075215603005
H            2.88955482547817       -3.36762724632814       -0.76741336060749
H            0.29215917721668       -2.83296216495951       -0.60363224120329
H           -2.67817604865879       -2.27919975206840        0.77762714985918
H           -1.00565432256040       -2.51515780171446        1.05949985246280
