26
 energy: -47.209931904780 gnorm: 0.000964897898 xtb: 6.6.1 (8d0f1dd)
N            5.12136928733730       -1.06985190680869        0.17971213893946
C            3.99872780597832       -0.82296104255322        0.15264955598551
C            2.65016674020192       -0.46265048115630        0.09715521485859
C            1.54181241473652       -1.27162142687856        0.35455154155312
C            0.36772582496825       -0.52900115959483        0.17448255532403
C           -0.87088514698825       -1.16731787523392        0.11431086293625
N           -0.94746228233488       -2.49700382885078        0.19993340087134
C           -2.23873809034790       -2.79482822405069       -0.01718431280188
N           -3.05805446104253       -1.78728265378361       -0.22162120791667
C           -2.27570760376324       -0.67546276748526       -0.11247066748284
C           -2.86944825720036        0.54454392290580       -0.02114230860721
C           -2.26661178221311        1.79813679309001        0.32930653620765
N           -3.02065302737309        2.61558255753330        1.09698544710871
N           -1.16159535190932        2.30832948236809       -0.11831739865252
C            0.01516167669908        1.94106128361197       -0.53520704902681
C            0.77578155759297        0.82975512747740       -0.21945495465999
C            2.19224681748226        0.82072544770102       -0.29600262217222
N            3.00928171738631        1.86947598463163       -0.56565262438976
H            1.56184502790131       -2.31122903252265        0.61734072037230
H           -2.57812917209334       -3.81569861385755       -0.02573918326883
H           -3.95130157396111        0.53208938849935       -0.06457911145806
H           -2.64579974208528        3.49953107660096        1.39382262858318
H           -3.90598644561145        2.30655317300766        1.45503162726801
H            0.50980300821625        2.73210945295120       -1.09943692436635
H            2.64235088744183        2.67498384073027       -1.04162010975883
H            3.98988185838247        1.67359291406757       -0.68200852404631
