33
 energy: -64.439168633132 gnorm: 0.000992123510 xtb: 6.6.1 (8d0f1dd)
N            1.75803390574351        4.59585633050044        1.67879748400800
C            1.36602898726621        3.66361849115033        1.13843367502217
C            0.86213160571093        2.52492002762089        0.46427266967831
C            1.76550220922221        1.98428434496379       -0.54456693264332
C            2.06753872236343        0.69572415234990       -0.76122139262065
C            2.97269871096966        0.38282138493695       -1.80803793446627
N            3.66173304512744        0.11062173474461       -2.68203008935411
C            1.60148219430638       -0.48339928111850       -0.02631508436431
C            2.45735169245461       -1.50581463788495        0.36739198822256
C            3.85723456595046       -1.48235892899328        0.32480314354928
N            5.00481840476625       -1.46780144263215        0.32769581887623
C            1.68127186497857       -2.59152707044168        0.87995511112950
C            0.35485306594070       -2.28099166372125        0.71133969371618
C           -0.70481928195769       -3.05155017805041        1.19957490372664
N           -1.57265044699566       -3.69267587349081        1.59750676593514
C            0.25985135319800       -0.93331617059116        0.15776954713607
C           -0.92442721809443       -0.23679044926842       -0.06748468338027
C           -2.19399555144511       -0.89755418671364       -0.48281030629279
N           -2.27238339887744       -2.12085314208776       -0.99435087841324
C           -3.20341358189488        0.04806332915985       -0.44303619848719
C           -4.54527912193263       -0.12623447175919       -0.78376395893241
N           -5.65498250197949       -0.24553696058807       -1.05770169752704
C           -2.62066716777009        1.28952804725435       -0.01588207793550
N           -3.31799933037609        2.40557554373352        0.17519779747055
C           -1.21896738010595        1.12252324677771        0.14705953582532
C           -0.41460878010223        2.16971102433294        0.72315459923119
H            2.27544648130473        2.73544144795235       -1.13786050882117
H            2.08059839120523       -3.48486511951718        1.32176267720705
H           -3.17587759149929       -2.49254668499295       -1.24363575404685
H           -1.50338875121759       -2.76671759919707       -0.91021395405405
H           -2.86348414964031        3.26330508024346        0.44105337187955
H           -4.31887189983962        2.39861846761574        0.06040307906491
H           -0.94567867887988        2.79406821391343        1.43708340026193
