30
 energy: -50.890853937011 gnorm: 0.000588235185 xtb: 6.6.1 (8d0f1dd)
N            5.14371399749054       -2.40397835972001       -0.39777497196946
C            4.19735315169462       -1.76743674464346       -0.25479233927773
C            3.05154456026846       -0.98829783251431       -0.06832195265151
C            3.03203124698847        0.39622226335432        0.14161201521754
C            1.70176511742334        0.82994581067982        0.20542359222641
C            1.40109677062463        2.19250065066298        0.44075856125002
N            2.36605683512568        2.90281281902083        1.07533353334054
C            0.32365926272004        2.97268793405508       -0.02743948797807
C           -0.90951759409956        2.71905284256500       -0.57785036091003
C           -1.75297731978208        1.60884825321390       -0.63372491646454
C           -1.66265040182532        0.30532172978104       -0.19335659533141
C           -2.82845609643895       -0.49789391707049       -0.11212052506211
C           -4.13174638583947       -0.10773545634651       -0.40103046999033
N           -5.22361418959306        0.17426313981497       -0.63633608769633
C           -2.46835283709627       -1.77589807306714        0.37072560738367
N           -3.31877354521030       -2.78015107563422        0.63111888958309
C           -1.06738810615673       -1.79981108479857        0.53089548979643
C           -0.52933615110684       -0.57046094209986        0.19269409313174
C            0.86301742228625       -0.36380126192938        0.07996111545271
C            1.72993092041663       -1.44995258159793       -0.06085735301340
H            3.91319486620946        1.01305336805490        0.13754742641816
H            3.19291176606712        2.44388185120733        1.41110849214320
H            2.30285009281072        3.90291431978255        1.15118420327372
H            0.54709286340280        4.03473814952101        0.03417542872594
H           -1.38820431257669        3.61542219400159       -0.95890782817998
H           -2.74233628308858        1.84891911810658       -1.01349958817982
H           -4.30300793896079       -2.66188786600606        0.46291766778562
H           -2.97988249285611       -3.66394704161439        0.96634698135949
H           -0.51975304342904       -2.65373273882357        0.88059270527854
H            1.44159466283067       -2.47237790435548       -0.21050175636209
