25
 energy: -43.490765774292 gnorm: 0.000716763724 xtb: 6.6.1 (8d0f1dd)
N           -2.84112621099272        2.61867547449952        0.23544243358775
C           -2.23144505532925        1.64182347109952        0.19187569139665
C           -1.64730830558991        0.38208475964558        0.12199253693787
C           -2.46256648453902       -0.78838278521262       -0.06452685849718
N           -3.79362215245523       -0.79099612454749       -0.16476887987722
N           -1.73363220173455       -1.89470646122776       -0.12477107552838
C           -0.43753978121373       -1.53950473351221        0.01360211330025
C            0.45319411882817       -2.56112302119348        0.25363511526824
C            1.83418004520979       -2.52112068582519        0.49701725972418
N            2.73056117994717       -1.74658816231491       -0.00236798008505
C            2.86360459505473       -0.56897776250108       -0.52909167231716
C            2.18508518145516        0.59954911326380       -0.20275600291966
C            2.79011967142902        1.86556417443780       -0.25431820352044
C            1.88168259433646        2.81612239517126        0.19049525287278
C            0.66715222804217        2.18676414464573        0.45010836049001
C            0.79118314292199        0.80702838727658        0.22679003458587
C           -0.31698995436683       -0.04943452092339        0.13180861048504
H           -4.30713399221242        0.07166697732686       -0.11118155594236
H           -4.27286732368459       -1.66051174230805       -0.31753234253018
H           -0.02139512284543       -3.52862439894768        0.35906678371566
H            2.24581073195376       -3.33781835228383        1.08777664327845
H            3.75551048445389       -0.46819657240841       -1.14498682955410
H            3.81108569261306        2.04325496450188       -0.53826510246645
H            2.07036340769435        3.86933841292874        0.29047266894549
H           -0.22861905507661        2.68439850360903        0.76818531485010
