32
 energy: -58.340213915076 gnorm: 0.000991168451 xtb: 6.6.1 (8d0f1dd)
N           -4.40461968753053       -1.92443737244743        1.12318262243021
C           -3.42861752629454       -1.46158022607114        0.71954747111854
C           -2.24707017155842       -0.90720165282298        0.21730698166326
C           -1.52688080885865       -1.75347228460126       -0.72066825150538
N           -2.28059840663845       -2.39956775300044       -1.64145445759399
N           -0.27559390019175       -2.04659298204886       -0.68126770197104
C            0.84128635238127       -1.57305696616059       -0.17746869354015
C            1.91940587789655       -2.35922391404364        0.18289676724643
C            3.04913902225151       -1.53099477846227        0.32473054447498
N            4.28507486681725       -1.92057512424614        0.66042838486205
C            2.68023521768184       -0.18186384831585        0.05166026967968
C            3.59632865392875        0.85989959797127        0.13615442909990
N            4.43046329753006        1.65043615576719        0.22359668791806
C            1.29294919355289       -0.14563871032501       -0.18210823555457
C            0.49887295756878        0.97843108412923       -0.30424539240011
C            1.01805173826625        2.27111167283136       -0.65505420443826
N            0.09121539631269        3.18923886664828       -0.69495722388716
C           -1.06769800264342        2.59206535239411       -0.28419436895136
N           -2.19202301359863        3.36988299650266       -0.15986121336233
C           -0.90853488097179        1.22012562676904       -0.05417240095547
C           -1.93875452690800        0.41154903850075        0.53335199572391
N           -2.78777215977368        1.07076505838251        1.36232423578604
H           -1.84699491061579       -3.12190246675610       -2.19097614582002
H           -3.28238623091403       -2.39462527890116       -1.55496767570063
H            1.90969457650821       -3.42622292179054        0.28927355155864
H            4.47712170006640       -2.87923173913288        0.89011882718915
H            5.02487749567129       -1.24114866790300        0.71430005945692
H            2.02877378818103        2.48589054237200       -0.94466494208801
H           -2.08452913082474        4.27174736559483       -0.60037494801980
H           -3.07751720961337        2.91941698255052       -0.33625226772343
H           -2.54576952322509        1.98966584554251        1.68706097801902
H           -3.52195379825167        0.56326596267283        1.82688051258559
