32
 energy: -59.920833424826 gnorm: 0.000716765318 xtb: 6.6.1 (8d0f1dd)
N            3.33429075882071        3.74122334682589        1.54213121888457
C            2.69662104166872        2.92907912643890        1.04225329084317
C            1.89967470570310        1.93785288932207        0.42077883107517
C            2.64476663227717        1.08089084679485       -0.48641047507869
C            2.53811420882916       -0.24747438873418       -0.66173425254647
C            3.42324463930293       -0.85754853693035       -1.58617936148191
N            4.12269709686272       -1.36501674744816       -2.34013553035878
C            1.67905538398952       -1.21292167007950        0.02438992681996
C            2.13476024751622       -2.45436970470722        0.39913768034435
C            1.04958520317285       -3.22529081770641        0.89458067454576
C           -0.10674939621346       -2.50279064029166        0.72369965253158
C           -1.35410172453761       -2.88718499062326        1.22093621114370
N           -2.37574362802362       -3.22096742687701        1.63158569218813
C            0.24894160866213       -1.18994485254218        0.18375820457717
C           -0.64892778294615       -0.16853887758148       -0.07180329072809
C           -2.05883092706381       -0.41696611063410       -0.47829750639826
N           -2.50388635360607       -1.56239784921426       -0.99095830994723
C           -2.73501724728905        0.78774111437373       -0.44997804248238
C           -4.06657400268591        1.02360474139817       -0.79014063379928
N           -5.16129906258547        1.24406410013409       -1.06328463435403
C           -1.80009905342286        1.80448513035089       -0.04450992062063
N           -2.13995799482912        3.08291496519511        0.12361860425276
C           -0.51684269564533        1.23182857512332        0.11143891427694
C            0.56672582239484        2.00509847223089        0.64617955521161
H            3.42701259219474        1.59650134754392       -1.03453730695874
H            3.15296416061067       -2.79233812135232        0.34061062984025
H            1.12246272491157       -4.20310763258338        1.33273160475404
H           -1.96537748458060       -2.40888827710218       -0.89949499345370
H           -3.48153415775843       -1.64794395835777       -1.22024449501328
H           -3.10153211258569        3.36250806583221        0.02028424500002
H           -1.45489096387055        3.77436981425645        0.37623231107240
H            0.24748561662583        2.82152285664398        1.28947362605996
