26
 energy: -47.198530997540 gnorm: 0.000679466260 xtb: 6.6.1 (8d0f1dd)
N            4.40754367698766       -0.29409240751702        0.02382599541390
C            3.27438442973131       -0.13167975806091       -0.08250778640578
C            1.90209131776450        0.17836847397061       -0.16699893244252
C            1.57793453855675        1.55773607174917        0.10291443132429
N            2.39890579129641        2.22206210876971        0.94162020285728
N            0.66740340316488        2.26282991094017       -0.50117323459418
C           -0.56039261030382        2.17042457844403       -0.89694695454331
C           -1.54232288876290        1.30200871809737       -0.43398609720888
C           -2.90940736153326        1.60056248406957       -0.37750749426835
N           -3.62953100259536        0.63573441102910        0.19812413941479
C           -2.78914696139483       -0.37013886330340        0.46243822248439
N           -3.24178910163805       -1.50295066076026        1.04395659143298
C           -1.43394841832445       -0.07014076406868        0.06922041038190
C           -0.45017942977423       -1.02002788366943       -0.14698029123398
C           -0.64520898628622       -2.41060683120478       -0.19351346662386
C            0.57174061471853       -2.98060024528622       -0.53398106292212
N            1.56658791657639       -2.09013976129571       -0.61659507419874
C            1.03800739483530       -0.88511639996010       -0.38866042654264
H            3.25387785294306        1.78936430854988        1.25061588934639
H            2.28173078891073        3.21474515830002        1.05547911693193
H           -0.87312299212480        2.97644535665057       -1.55612451626193
H           -3.37665542512077        2.52080272295330       -0.67708058108131
H           -4.18796428813560       -1.46444440540096        1.38683022189094
H           -2.58843433507121       -2.09257394319445        1.53143978240596
H           -1.58205398901799       -2.92819474652234       -0.14628784916282
H            0.76781203799655       -4.01957627147604       -0.73381345099365
