24
 energy: -42.972009595508 gnorm: 0.000732557857 xtb: 6.6.1 (8d0f1dd)
N            0.18164902032925        3.12045840058084       -1.28459540461821
C            0.16570051231463        2.13934935010461       -0.35629001587408
N            1.33674949927176        1.63045650103022       -0.02736608867222
C            1.75449150795723        0.42666552652447        0.20411350786429
C            3.05138681279529        0.05811704006175        0.58509046648548
C            3.14477306075979       -1.30002194466013        0.33479670482966
N            2.00078787623227       -1.86580022202789       -0.09529618231834
C            1.08331604454423       -0.90425952510296       -0.12850209958846
C           -0.26471085452710       -1.16310852512387       -0.29032266195356
C           -0.77923950940825       -2.43786225221041       -0.69974083410517
N           -2.08652305739718       -2.47843961664075       -0.67613087309268
C           -2.50396452539309       -1.28402317978161       -0.17825538768809
C           -1.45730689105068       -0.41053104148917        0.05386359978465
C           -1.59637036442523        0.88846269074296        0.65858760156378
N           -2.57113121990731        1.02687926679764        1.57463389036377
N           -0.96540618483060        1.97347531643819        0.31271358623248
H           -0.63625843667168        3.69039832044628       -1.40564396557998
H            1.06619346528405        3.43977644290074       -1.63811124982586
H            3.83362730276166        0.71649545364490        0.90284157346795
H            4.01853771132302       -1.91815535689101        0.45607045851448
H           -0.18167839773401       -3.26119429089920       -1.03928225913967
H           -3.55712605533417       -1.09623637404853       -0.06122717952508
H           -2.75449661226407        1.93373340256610        1.96746896542688
H           -3.15624738032973        0.24611384363686        1.81175088184795
