33
 energy: -63.656885944882 gnorm: 0.000220456399 xtb: 6.6.1 (8d0f1dd)
N            2.59558269650580        4.32733430370227        1.16933564241699
C            2.02945879648490        3.40801322644368        0.77394574757734
C            1.35067669901703        2.29330189063756        0.25590548606732
C            0.05318020308658        2.08637410557890        0.60707663698284
C           -0.91278232376006        1.14162207493109        0.16411124808568
C           -2.28549150765373        1.45322041859596        0.25276838068610
N           -2.84305587085316        2.61384213722403        0.62064149653223
C           -3.06569195657179        0.32952737230628       -0.18467815409030
C           -4.45269494651752        0.33528133767389       -0.32821072657631
N           -5.59730386431152        0.36420764574029       -0.43376550785932
C           -2.19792823465978       -0.71004625976061       -0.47031939172019
N           -2.51978932464534       -1.84561187608554       -1.09522516579502
C           -0.81940095771970       -0.25480665554020       -0.19910219020075
C            0.25366114900345       -1.10950645803452       -0.11076980902162
C            0.23768037165472       -2.50399149276118        0.30371465685181
C           -0.86219224927839       -3.28328451436305        0.65980885041582
N           -1.75164729038741       -3.95165838938466        0.95820403754384
C            1.53689383500924       -2.90013305483905        0.54128128763164
C            2.42807844990296       -1.84998039568728        0.18929998371951
C            3.82279371425701       -1.91175189388215        0.23830757603573
N            4.97004535070326       -1.95988121244777        0.27768392538027
C            1.67590785491592       -0.74810867667823       -0.21294975474095
N            2.18520572399721        0.28582547407514       -0.87690070689195
C            2.06734993791550        1.55258354377514       -0.80440036948149
N            2.63698361064672        2.31712186465933       -1.75724869064526
H           -0.34640634041089        2.83342088154980        1.28933338206493
H           -3.84420847911596        2.67432560102735        0.70130097310559
H           -2.28518834537018        3.38509476299117        0.94295227700714
H           -1.85098094075024       -2.59297515873806       -1.18233897491605
H           -3.49438514802706       -2.08549963308969       -1.18603650710810
H            1.83660898885631       -3.85359694825988        0.93740215722863
H            2.75997010359104        3.30319673832347       -1.60018431640353
H            3.21625617498439        1.86452531981229       -2.44489591388005
