30
 energy: -54.900196687367 gnorm: 0.000736399871 xtb: 6.6.1 (8d0f1dd)
N            4.29571409889325        1.92849158898126        0.90525429131708
C            3.41651807201399        1.22975832024095        0.64685534095464
C            2.36678823038091        0.37665635743662        0.32891788102859
C            0.99819134125724        0.77232970413063        0.13338694214430
C            0.68988479604031        2.09297793876983        0.05665767925320
C           -0.52024983962994        2.74506229767035       -0.38171376694519
N           -0.33050136470052        3.81649334246464       -1.18262672280420
N           -1.73790440582894        2.52447076631763       -0.00700046646046
C           -2.41516707240236        1.50812216321932        0.47179240353631
C           -2.28118978198266        0.16257822066716        0.23457846794803
C           -3.38095474329173       -0.75326259427355        0.32778086160884
N           -4.64581878604752       -0.49011732494410        0.71901311358670
N           -3.03779377666693       -1.98787187236759       -0.05202788940460
C           -1.73690734371500       -1.95431499025087       -0.34019085836608
C           -1.15596485456699       -0.68096823835895       -0.19613105261433
C            0.22804685022338       -0.47006775908601       -0.16198199411545
C            1.18261434890332       -1.48992513099717       -0.28327269460167
C            1.05624467504442       -2.83534635097722       -0.61797182532017
N            1.10922318329970       -3.95254294944802       -0.89712404121226
C            2.48810252559082       -0.97947887525359        0.03613021947461
N            3.60693931717469       -1.71570533760973        0.04072775465360
H            1.52663993606055        2.77076215755859        0.19447361583466
H            0.59412074594840        4.12003234014139       -1.42820538931060
H           -1.12698147325274        4.34118650585559       -1.49909071250699
H           -3.31064876113540        1.83110173515795        1.00128186173301
H           -4.96809552420729        0.45522667650785        0.81363080975829
H           -5.32378204849679       -1.21357043827044        0.55271866758830
H           -1.24404757313523       -2.85988897941127       -0.63685491136367
H            3.56504023930299       -2.69190682152247       -0.19909748295146
H            4.48596064368648       -1.30282637718757        0.29931552530855
