21
 energy: -39.804010565440 gnorm: 0.000683201576 xtb: 6.6.1 (8d0f1dd)
N            2.51842024183036        1.51207208288394       -1.25522857091522
C            1.56949487389096        1.19937762500931       -0.36170657497829
N            0.95216296688079        2.18761156984669        0.22739587787437
C           -0.20659774087171        2.27203701231601        0.81878216872430
N           -1.34424320700245        1.79878122257336        0.40899728401992
C           -1.77048104010793        0.66427576913572       -0.02067584134584
N           -3.00008953150511        0.43196538532859       -0.48641053643235
C           -3.11958390182338       -0.89508859584258       -0.45552721161990
N           -2.05747221837341       -1.60672960592215       -0.08039925958434
C           -1.09680017729526       -0.70373721767640        0.13765952846494
C            0.24550633686277       -0.99255474790525        0.22530533001964
C            0.76093721903500       -2.32726981419842        0.36322722689963
N            2.06453645402711       -2.36291720149354        0.30992882863064
C            2.48319942500431       -1.09450702521961        0.04962911889134
C            1.44085667431789       -0.18900983689453        0.00617515063971
H            3.12886133776343        0.80104226759154       -1.61821999329648
H            2.69305857401921        2.47947580907258       -1.47070341937751
H           -0.27080073234024        3.00057387983265        1.62402913578426
H           -4.04097087715869       -1.37595883654983       -0.73263152581642
H            0.16346210949398       -3.20054922540366        0.53961434737660
H            3.53572328305236       -0.89460586128440       -0.04756494105896
