29
 energy: -55.198046515734 gnorm: 0.000901273828 xtb: 6.6.1 (8d0f1dd)
N           -3.74064766287650       -2.71092143058592       -0.81991064755700
C           -3.01068415002146       -1.85687891245538       -0.57216230701418
C           -2.17156117706354       -0.78245867672982       -0.28481047547275
C           -0.79222714289855       -0.83790806351024        0.00790186707077
N           -0.17301765186914       -1.93860106078334        0.28236567760469
C            1.08621311235409       -2.28272767451892        0.46766736795304
N            1.31539406494806       -3.19740458293825        1.43066889005920
N            2.08835920399289       -2.00757667374752       -0.35230344159146
C            2.49880025934085       -0.85336614681701       -0.79660093299580
N            3.35989571586703       -0.86858575853220       -1.82715512553001
C            2.23670601977254        0.42383870177055       -0.18449323792260
C            3.18746879466470        1.41695621005137       -0.02967715686514
N            2.67664645642910        2.53987252737720        0.53309200438167
C            1.39015693325682        2.33907757132160        0.67263031254051
C            0.99570074122094        1.01942870159901        0.27704918686339
C           -0.31815157303065        0.57682967124773        0.20337312257577
C           -1.47142563175430        1.37211708408234        0.18770228429845
C           -1.60985852552000        2.74898533467384        0.35224698748695
N           -1.83661568341915        3.87095380406025        0.47732364358600
C           -2.59812105472169        0.55561396400512       -0.14543458951308
N           -3.84348386495673        1.00533132058261       -0.30328980982967
H            0.52965664742147       -3.61590358266190        1.89740456949705
H            2.20889622642797       -3.65574889990432        1.46030830001563
H            3.65513165510174       -1.75110650282486       -2.20772254895573
H            3.81842010755802       -0.02140755768302       -2.11061212351433
H            4.23993655316640        1.35896073947974       -0.24529292546190
H            0.75053827376834        3.09001617240538        1.09568369509582
H           -4.04952795894397        1.97998895750183       -0.15723009330599
H           -4.57985013131374        0.37387085333459       -0.57076308549879
