30
 energy: -50.088930560793 gnorm: 0.000669170441 xtb: 6.6.1 (8d0f1dd)
N            3.18643748399618       -2.72470433019697        0.52641502909674
C            2.62254500603643       -1.72586231630476        0.39647616482086
C            2.08214673103001       -0.45935178391745        0.22024169429360
C            2.90546206001204        0.63412966277861       -0.12644433979053
N            4.23916925185324        0.57184563852024       -0.28266027692442
C            2.10803178036715        1.79226779872617       -0.25656562690700
C            0.79314501770917        1.45856534092498       -0.00761654868844
N           -0.12921381064787        2.36601043571725        0.25775983428196
C           -1.39125367374384        2.52668253335043        0.08752692908235
N           -1.93111027103349        3.63225175753566        0.67697876583936
C           -2.28349255721747        1.78825017153473       -0.77483939225860
C           -2.40691535684979        0.44462968367993       -0.86500462314695
C           -1.75436361489946       -0.64085727570712       -0.22542605440731
C           -2.38467150078338       -1.88223348540362       -0.12040195646730
N           -3.69205004481808       -2.18674989549596       -0.40523038353664
C           -1.48517667909475       -2.82435208168583        0.46433303755512
C           -0.28648485286942       -2.21431442497041        0.65255484877617
C           -0.38087480142601       -0.83513082678927        0.25746843863028
C            0.72611242376744       -0.01986867744963        0.21023131927207
H            4.70908425578441       -0.31124929650973       -0.17727291333161
H            4.75258181992015        1.36780453276672       -0.61443664581303
H            2.47367798274202        2.77832223989830       -0.46785189002412
H           -2.92935316616981        3.72535443508056        0.73252764397017
H           -1.37097654619707        4.11087228662409        1.36168734020373
H           -3.00355865201237        2.40035854180527       -1.30275076961404
H           -3.24092268239065        0.12460725408431       -1.48714480792588
H           -3.89171201936526       -3.16697340561921       -0.52744354107712
H           -4.17784848528067       -1.57770799227684       -1.04543599252581
H           -1.73822548222728       -3.84203168452988        0.70107057527147
H            0.59415609790513       -2.66140871587053        1.06964703704457
