27
 energy: -46.935698356073 gnorm: 0.000738870435 xtb: 6.6.1 (8d0f1dd)
N            4.56038531379541       -1.21050139079940       -0.70787874878605
C            3.49807951592834       -0.83701307346846       -0.47258266106876
C            2.19635318556960       -0.40214842541423       -0.16527001749578
C            1.86692128987231        0.89330200659413       -0.51617500310258
C            0.78678729219227        1.72825710348300       -0.23057390508337
C            0.95274892831959        3.12069537662627       -0.35672088934406
C           -0.22174406265624        3.76717631653278        0.00748999533530
C           -1.17842513494854        2.80496329599542        0.29386789476824
C           -0.61225041127496        1.52234090164689        0.16783082630086
C           -1.39660266902779        0.36604902626678        0.15474125244906
C           -2.77043367261429        0.28446195781061        0.02432755624321
C           -3.06964540108619       -1.06986941467630       -0.25374279981357
N           -4.27317070639094       -1.58152276262827       -0.53012956477984
N           -1.98097760727837       -1.86599005686313       -0.23100048320223
C           -0.95499661215164       -1.07802412514896        0.08090296613476
N            0.16217737590319       -1.59432617100891        0.47570599551903
C            1.41633561863014       -1.32481839925222        0.62651916054921
N            2.08527386200148       -2.06370505208075        1.53964402028896
H            2.68210128669819        1.41700968868104       -1.01065543934774
H            1.87025554194793        3.59916254169563       -0.64913555368489
H           -0.36606365918491        4.83163337763567        0.05058993547600
H           -2.19525939348609        2.99904881466987        0.57960716341332
H           -3.48426215112045        1.08335683078455        0.03360223066884
H           -5.09698084069551       -1.00869533058269       -0.51108816627328
H           -4.34064475512410       -2.55924074280027       -0.75063113961523
H            1.59542005115804       -2.81267948719660        1.99935837297698
H            3.09115717962307       -2.05357430850283        1.55499323787343
