27
 energy: -46.925586514767 gnorm: 0.000787617763 xtb: 6.6.1 (8d0f1dd)
N            4.75839881024528       -0.95549756181266       -0.00585236961548
C            3.64435170304330       -0.66374264984094        0.00042964741738
C            2.30674181894379       -0.28236699425311        0.01526654647706
C            1.84252678405892        1.06853906801410        0.16888523803022
N            2.70196953219466        2.09104567168259        0.33344586941278
C            0.43847666870171        1.11009774181886        0.11223776399809
C           -0.23612973359966        2.32703059172192        0.39416925025716
C           -1.49431924961208        2.80405085731732        0.19823147983547
C           -2.58673240528309        2.19055672306576       -0.48244551619921
N           -2.98239423045865        0.98402930166822       -0.51972700093978
C           -2.58673563052084       -0.20902749928671       -0.12026803443091
C           -3.42073564935103       -1.23552556523011        0.27750414682606
C           -2.64423672369178       -2.41484829269003        0.25021437486079
N           -1.39661008929582       -2.20706978157114       -0.09300817331844
C           -1.24152849414164       -0.83837050911871       -0.21689430328615
C           -0.01047730805985       -0.25721827131889       -0.10189600503067
C            1.19660030958018       -1.10512587493767       -0.09982997933306
N            1.15624895632363       -2.42440972109067       -0.23155522000003
H            3.68964065272416        1.90576840164702        0.33171878889150
H            2.38498054490560        3.04183433433115        0.38601623300082
H            0.43891280913207        3.07342360670582        0.80530303966162
H           -1.65000012097658        3.85138397776222        0.42559745816315
H           -3.21803247327290        2.87703633016408       -1.04736771207679
H           -4.46670651118853       -1.16352703514328        0.50011096866602
H           -2.99448009552884       -3.41395177981961        0.44654742320462
H            0.20708386961459       -2.82311803517980       -0.24612279224831
H            2.00435803801506       -2.96433109250712       -0.24604271982512
