35
 energy: -67.099448169376 gnorm: 0.000606783985 xtb: 6.6.1 (8d0f1dd)
N            5.56180971616233       -0.37158375276552       -1.28718111644764
C            4.47197717455674       -0.28267459835341       -0.93234094729371
C            3.14193908351879       -0.25760838611145       -0.50748037942455
C            2.30439765908065        0.83207145616589       -0.37898097599406
C            1.01080723160572        0.37639078635442       -0.02177599953750
C           -0.04167591659166        1.25907122011017        0.19248003907286
C            0.08890575414839        2.63711997564735        0.44441830088231
C            1.20652902612206        3.38743583878903        0.79611951355183
N            2.07691472627104        4.07677355292946        1.09941214483457
C           -1.22417497272406        3.18091892265778        0.38082106649218
N           -1.58124024769025        4.44100715282947        0.62265297309686
N           -2.12878788404477        2.24549874398006        0.03377009613004
C           -1.49207162704560        1.08158209260400       -0.06172848977061
C           -2.22223929042180       -0.00355450829142       -0.57851978597908
C           -3.38497968122825        0.42834414013109       -1.26493372142187
N           -4.31909556439151        0.73166379521866       -1.86068223374448
C           -2.10989392740378       -1.39608259010024       -0.40776074665211
N           -3.05849430836621       -2.15165845204583       -1.00502328824363
C           -1.21650839256616       -2.11549930495384        0.45009935902111
C           -1.81105369340304       -3.26636315906811        1.00788261055277
N           -2.29446664427531       -4.20025375767727        1.47707393292282
C            0.15281712744969       -1.97391249952298        0.72285056415026
N            0.70882380279423       -2.90273433578625        1.53471744524171
C            1.08727177075232       -1.06840831932271        0.13093011146478
C            2.40714575601408       -1.43620836529426       -0.14656116772395
N            2.97994428695290       -2.68355759409131       -0.10776868794499
H            2.56832072944187        1.85203814776546       -0.58051688389172
H           -0.89036955487656        5.13068650682213        0.86369010515485
H           -2.55058809114106        4.69469644494586        0.53996577588599
H           -3.83076843363238       -1.70459594468097       -1.47409174678786
H           -3.12540969437661       -3.13530419101304       -0.80026294689126
H            0.13501637352973       -3.59168445219115        1.99287617609814
H            1.66740338575501       -2.80014805773210        1.81878193641120
H            2.37174375446504       -3.47598195029149       -0.24670254451013
H            3.87040507525710       -2.75336301425777       -0.57920198420615
