30
 energy: -54.896168754883 gnorm: 0.000880354057 xtb: 6.6.1 (8d0f1dd)
N            4.70768627682832       -1.65052859644045       -0.35229943513918
C            3.69354229790580       -1.11876235363627       -0.23891987647548
C            2.49388908724179       -0.42411138943646       -0.09421612041285
C            1.20677068574670       -0.95415651917192       -0.14689061480378
C            0.99184891073529       -2.30616873899389       -0.54929042241791
C           -0.09081839174608       -3.09355496522994       -0.33913661434246
N           -1.05961420311277       -2.96359025491563        0.57734654099399
C           -1.89969099342526       -2.05576300925521        0.84612852486011
C           -2.09924300356886       -0.80400273305069        0.17853080048358
C           -3.33378826365721       -0.14092663800607        0.07160694307224
N           -4.54969825872565       -0.61377381264245        0.38688070301081
N           -3.21302336083993        1.11232374390205       -0.45212712655391
C           -1.92382376182975        1.33531348632161       -0.57817073008624
N           -1.47728297640186        2.40272067892173       -1.24499831244712
C           -1.10550436366179        0.16794826161528       -0.15524972978789
C            0.27045817825118        0.16167691947776       -0.01074862989527
C            1.07938557893588        1.34186125662539        0.20584956853897
C            0.67240980058931        2.61404386560427        0.59070624538467
N            0.41219070097562        3.69201055551046        0.90887396199094
C            2.42521078015481        0.98322899185887        0.18188882175572
N            3.49286959027894        1.78748670434241        0.35550409982078
H            1.81935824204649       -2.74278798526897       -1.09576099531810
H           -0.11822989046078       -4.06601334884943       -0.82179501130241
H           -2.56477035095597       -2.27240584835118        1.68190991171745
H           -5.34767049237579       -0.03789554922026        0.18833516954829
H           -4.67620816590604       -1.56464071520919        0.67974507336953
H           -0.51118774985216        2.67787171239463       -1.19719215247165
H           -2.16150536564600        3.10402834970740       -1.47622052071951
H            4.40723143047135        1.37796159796248        0.44210700979805
H            3.35343739150422        2.72928771443277        0.67999804482846
