32
 energy: -59.125584318351 gnorm: 0.000895738113 xtb: 6.6.1 (8d0f1dd)
N            4.53025243067427        0.46906697923579       -1.55844697390677
C            3.52532829504129        0.23207255866950       -1.06000354441919
C            2.26840467483809       -0.10945600755569       -0.49254946871519
C            1.99521139526476       -1.47489285196664       -0.52146796128321
C            1.03009100815944       -2.28290648371310        0.06271379301664
C            1.41267452614387       -3.64687853960494        0.06687263311035
N            1.71604960228234       -4.75501111322226        0.07926381357947
C           -0.27873282007428       -2.05258455743887        0.59368133426373
N           -0.79673151469235       -3.06794135407737        1.31562337311986
C           -1.15982586418871       -0.99172336929720        0.29054636090259
C           -2.53396945707962       -1.22379305186189        0.18793657707606
C           -3.18712868980079       -0.03004176022944       -0.15031914118160
C           -4.54121781051664        0.12699411335909       -0.44764969490077
N           -5.64957993521165        0.28983548416759       -0.70795906986677
C           -2.23369151387694        1.00700865564650       -0.16575029358090
N           -2.52642617182796        2.31663104505575       -0.42679357541978
C           -0.95559954712137        0.44893236246296        0.10448292418789
C            0.16357502456770        1.24621898021581        0.35958183709885
C            0.13217158901178        2.58020167367813        0.74851071212847
C            1.46597309050884        3.02883798499664        0.76977829194991
N            1.92820887965871        4.22113959113920        1.15529253784939
N            2.32187538196499        2.08074284025432        0.31824389528211
C            1.61222044813538        0.98510262804726        0.09205759060147
H            2.79106471885112       -2.04743340391696       -0.99351938318907
H           -1.74709977541725       -3.01703834837229        1.63852665374590
H           -0.29982404972420       -3.94017559317998        1.40361934455429
H           -3.02859017401007       -2.17760142157605        0.23199112659064
H           -1.77125417320431        2.88447781466764       -0.78018252034987
H           -3.42566694548697        2.47936153531628       -0.85520174065628
H           -0.71488711444192        3.13253879251943        1.10233060077347
H            2.92230185022774        4.37147691153511        1.14881105723145
H            1.31370335394573        4.92141709334454        1.52927182080603
