32
 energy: -59.137741451812 gnorm: 0.000517926393 xtb: 6.6.1 (8d0f1dd)
N            5.72245290921777        1.37966352290196       -0.70483309586483
C            4.68953898731945        0.93925728489242       -0.45373168248793
C            3.42170998921869        0.43277073912182       -0.17201696761171
C            3.12079337306058       -0.86980016686212        0.31202034709459
C            1.75532658904541       -1.02119454403602        0.37306549594295
C            1.08618702517233       -2.18988797499066        0.87931926617724
N            1.62215107612327       -2.80173621149876        1.95302065242920
N            0.10789123340097       -2.78764407831271        0.27651626470208
C           -0.87347175928772       -2.48311453408806       -0.51990018917231
C           -1.69157866245136       -1.35464115803423       -0.51185578862889
C           -2.90940094155453       -1.51433659040917       -1.21181417050652
N           -3.85874217914308       -1.66815702624383       -1.83850966674674
C           -1.46118072862298       -0.08082397452521        0.06379385005851
C           -2.48137524053157        0.82735551567647        0.30648412534118
C           -3.85862590490159        0.61378557180985        0.36444658099938
N           -4.99981171341202        0.54441214802296        0.49177811452449
C           -1.89940695758471        2.11520214475738        0.60232200382141
N           -2.61760156519815        3.19255461703139        0.94679234614063
C           -0.52329313835016        2.00860811701740        0.46513433785349
C           -0.17672595477425        0.67514469636884        0.18850955031904
C            1.13377541968493        0.24688604868039        0.01107656494129
C            2.22318684952259        1.12954943683407       -0.32505436446692
N            2.11425507899051        2.41804515332171       -0.76831683887306
H            3.85850417385216       -1.61944330292501        0.53435741160719
H            1.25170993234903       -3.68594098406106        2.25715902833898
H            2.47940274218912       -2.45993556902546        2.34874959421299
H           -1.18878039485306       -3.30488180243080       -1.15808631300403
H           -2.16458897529323        4.05682581309752        1.18509586403278
H           -3.61482636535342        3.11211145661108        1.05473458034220
H            0.17503976267012        2.79129177706290        0.68996060764892
H            2.94284728391607        2.79331736482275       -1.20583506724556
H            1.24162329797848        2.67794821141181       -1.20103254372020
