27
 energy: -46.923485961830 gnorm: 0.000895816842 xtb: 6.6.1 (8d0f1dd)
N            4.25248406491576        2.60749675480977       -0.00972080926350
C            3.21805053307263        2.10653878725163       -0.01182723700943
C            1.94961938234364        1.47691013448382       -0.00822095077878
C            0.88430465215241        2.41290948468161        0.01827822835956
C           -0.47687115747965        2.35053359700772        0.02365747706461
C           -1.44474889197363        1.31968432122953        0.00881543827242
C           -2.78709943701776        1.59986225878894        0.00631864713891
C           -3.47650436648041        0.34058845919347       -0.00182717677617
N           -4.80341515188000        0.17566815344382       -0.00774110069165
N           -2.63986045110136       -0.68398290081657       -0.00227855918398
C           -1.37906992485687       -0.17489892946516        0.00089873391481
C           -0.33133923198356       -1.05846655333131       -0.00342453715251
C           -0.57599998035475       -2.46883542391311       -0.00667134835845
N            0.52089296005791       -3.18244050141978       -0.02061900984382
C            1.56364754847571       -2.30608153515635       -0.02882667232161
N            2.82050772577343       -2.80109289686506       -0.09030831571129
C            1.13673386876254       -0.95722395385386       -0.01876228201135
C            2.04196420994227        0.09130596931815       -0.02743152134053
H            1.26425784940822        3.43178054140429        0.03541452099263
H           -0.95422557164105        3.32603067562521        0.04235019160460
H           -3.25506018624640        2.56547249305334        0.00954271293627
H           -5.17557140347336       -0.75765575205050       -0.01000684276319
H           -5.42310962030163        0.96512514837779       -0.00885202442501
H           -1.54779245103326       -2.92213137680671        0.00516082538689
H            3.60863364755884       -2.21987303480254        0.13404309313184
H            2.91101850548070       -3.79227482265239        0.05236174813292
H            3.07693766207939       -0.24456113063583       -0.05465749100442
