29
 energy: -49.575755099641 gnorm: 0.000524079084 xtb: 6.6.1 (8d0f1dd)
N            4.23946624088223        1.12752007746298       -0.66272905031856
C            3.01546119282777        0.63415584327538       -0.39426998183278
C            1.89707510635523        1.36051312406592        0.04373151968796
C            0.83697101271465        0.45723634132757        0.10817263554315
C           -0.51818573909872        0.73924599366052        0.22384442391984
C           -1.01128482750622        2.03791041460788        0.55804199875045
N           -0.28528995976561        3.03911174170261        1.15779572823757
C           -2.33950313625512        2.14721685543329        0.16546968680541
C           -2.73119351411304        0.94800194312135       -0.43504534661347
N           -3.96319269748556        0.73686747881112       -0.99547487212075
C           -1.66579803284269        0.01226423790171       -0.35214225440153
C           -1.80769492687324       -1.29933889816949       -0.78236359412794
N           -1.21927258935719       -2.39862644646421       -0.39191049882115
C           -0.12384789551076       -2.55298977412392        0.33667865439028
N           -0.19052502278660       -3.50975691834086        1.30154871192499
N            1.07501636485208       -2.06473660995409        0.10733781276489
C            1.51709020805953       -0.87783889396874       -0.16713343059348
N            2.78519484128336       -0.69276750240000       -0.51430597840198
H            4.89250562784481        0.51640394651297       -1.12121323140121
H            4.37659579635873        2.12073867587548       -0.71961904834207
H            1.85850734155111        2.42890586714044        0.11628755000285
H            0.47928255044352        2.73154022590771        1.73866368546432
H           -0.83822030150305        3.78349470630988        1.55447848637872
H           -2.96358212687444        3.01342101508110        0.29736006624841
H           -4.69084180739836        1.37628450122371       -0.72180217572258
H           -4.25863387198687       -0.21470051469929       -1.13115117208605
H           -2.65032572220275       -1.50352123955978       -1.44183219519158
H            0.67992037760439       -3.86855398765541        1.65535099918525
H           -0.99438607131727       -4.11361373448623        1.30409702987116
