27
 energy: -51.722806160480 gnorm: 0.000979145668 xtb: 6.6.1 (8d0f1dd)
N            4.54836897562371        0.54088609815663        1.31963768020010
C            3.56537205091010        0.64646206772310        0.73836462770637
C            2.33708206864716        0.81230781032826        0.06014323861683
C            1.88709289438046        2.08254142473966       -0.14150822568625
N            0.94092685187991        2.48838457365379       -0.99471691226357
C           -0.30119688495884        2.28137306616544       -1.09118670949380
C           -1.11062374607354        1.44677659813830       -0.24405678789129
C           -2.46487185615421        1.67031133580046        0.08900668176540
N           -3.18938344326784        2.76665432111107       -0.14416980741652
N           -3.01886684017926        0.62198857090460        0.76133535838284
C           -2.11069309377625       -0.32668329437655        0.78010927029418
N           -2.26716737129644       -1.43365155435560        1.49300443641615
C           -0.84325353020876        0.09880375760753        0.10577170956931
C            0.22827476871817       -0.72109237642576       -0.19397473477679
C            0.19658700328315       -2.15578856196416       -0.38088497378964
C           -0.91311468148924       -2.98631760912990       -0.51596489695620
N           -1.81829030669047       -3.69112614845368       -0.61863140091314
C            1.50276768687555       -2.54265622954064       -0.61649161398124
N            2.36046921862045       -1.50833614636186       -0.49163363077103
C            1.65882282751760       -0.41178433334878       -0.30110720829152
H            2.45455511460713        2.90606885004715        0.28194364831190
H           -0.80365735111331        2.79183522701535       -1.91109284519936
H           -2.80375610332882        3.55728095182760       -0.62784021805834
H           -4.14827148776203        2.77749384234021        0.15661214168102
H           -3.16938230106063       -1.58934985061640        1.91298744244375
H           -1.64283633723429       -2.21700257830872        1.38790528438457
H            1.85946561383020       -3.52199070977669       -0.87564645798357
