30
 energy: -54.891784022938 gnorm: 0.000869481753 xtb: 6.6.1 (8d0f1dd)
N           -4.67725924936723        0.83877298308642       -0.85995170706619
C           -3.56130469573919        0.99454590083075       -0.63121644850686
C           -2.20465313515597        1.24798148370154       -0.41950682747945
C           -1.62623654422406        2.56662791759296       -0.46991051670613
C           -0.29831323578709        2.46902739366515       -0.21901878449562
C            0.05918243988491        1.07622075556182       -0.08740781461730
C            1.34424459067552        0.63756055334311        0.11066055461950
C            2.44671408309388        1.49050637274342        0.60930124542613
N            2.29321924618769        2.64490116712823        1.26262650403306
N            3.62779277561680        0.94217328844430        0.43242834295448
C            3.40235387122508       -0.25510574080780       -0.18394229879299
N            4.44603594521433       -1.03448303937915       -0.50567506234162
C            2.03248365065995       -0.54808815152100       -0.32433734914774
C            1.51151330840410       -1.65754803152215       -1.03660925836782
N            0.41179950568683       -2.28171485449168       -0.87360224641333
C           -0.61100814291483       -2.14901649271023       -0.01006308642400
N           -0.90922950415516       -3.30017931646611        0.65009299328038
C           -1.45170056066521       -1.04439542502314        0.13492824830101
C           -2.67406489711809       -1.29117892491380        0.78563195282894
N           -3.63295446251441       -1.55149114897101        1.36703064742009
C           -1.19628885757866        0.31852884250175       -0.22019246541842
H           -2.18277409587247        3.45929444115533       -0.68993197041239
H            0.40957981865358        3.27400196750379       -0.28879919341086
H            3.10872864123066        3.06142870272665        1.67872296377935
H            1.37611832085508        2.95894929573759        1.52842150890076
H            4.31320981064897       -1.87799341716844       -1.03225006124584
H            5.36822208555391       -0.65052762341631       -0.40026768068212
H            2.14573274642724       -2.07761717386473       -1.81782043654365
H           -1.80150553204679       -3.37637456846068        1.11100829031677
H           -0.44338009107904       -4.14382928920686        0.36337084651209
