29
 energy: -51.165434663361 gnorm: 0.000719772251 xtb: 6.6.1 (8d0f1dd)
N           -4.51673778348563        1.06604614746748        0.82656500964023
C           -3.47529570174660        0.65912186715075        0.55427495317128
C           -2.23638968506170        0.10468708901223        0.24405069854638
C           -1.05257887882004        0.79427752984010       -0.10153160023252
N           -1.05041359452096        2.02841354075923       -0.46848108904026
C           -0.31962831312995        3.09305615467459       -0.51216012773911
C            0.77725439833099        3.38908277119237        0.29231479419270
C            1.71708489288780        2.50102797811283        0.79234992815710
C            2.04787233043030        1.19048733080160        0.46841469668076
C            3.34363580199627        0.73576663324609        0.77280785813806
C            3.58931216152133       -0.48576461613023        0.17024440361923
C            2.42241296108685       -0.91069378879521       -0.47235443263834
N            2.35831057670045       -1.97360589862865       -1.30895415495186
C            1.38791355160577        0.05515198068767       -0.23886610204537
C            0.03535151903144       -0.22548231250633       -0.26535857787938
C           -0.61692045728488       -1.48310926691904       -0.20497578801715
C           -0.12991351500348       -2.78141490890785       -0.27290585303776
N            0.15573315902983       -3.89963573860400       -0.30999809601110
C           -1.97774383776566       -1.28035348436420        0.16623424719958
N           -2.86208673878444       -2.25403793706483        0.40310123288391
H           -0.72821110558234        3.87894835702425       -1.14211101362866
H            0.95985082092711        4.43861112888150        0.47980542700302
H            2.48004635912036        2.97352930246604        1.40384449542941
H            4.06360442574580        1.30440930944122        1.33332460448422
H            4.52390750789817       -1.01539097511098        0.16583590722356
H            3.05824501464284       -2.69003993383050       -1.20859750929474
H            1.46564806130299       -2.28391585187043       -1.65275043786582
H           -2.59122403566942       -3.21874101924842        0.31050688463091
H           -3.79292925380010       -2.02528408707793        0.70774146118031
