32
 energy: -53.527167768050 gnorm: 0.000589308943 xtb: 6.6.1 (8d0f1dd)
N            2.60664171422208        2.60779750573471        1.24854924091013
C            2.32301942477710        1.59656739485763        0.76683348128997
C            2.06129599663453        0.35530936713154        0.20516758628218
C            3.02920541864011       -0.65078491522426        0.12853261571916
N            4.35408518615949       -0.50996509144865        0.39216997667369
C            2.39582305149206       -1.83547963177109       -0.32564577689080
C            1.03921915570546       -1.62995079891774       -0.43385076873375
C            0.17141492401526       -2.61917406516270       -1.00141403342923
C           -1.14273357677726       -2.84079704534620       -0.77255323492147
N           -1.91738569160663       -2.35643793610362        0.21431615326068
C           -2.14836755885429       -1.15871708870406        0.58881192358535
N           -3.00498059937730       -1.00510312644184        1.66335344875077
C           -1.74059681863745        0.07581998348715       -0.06357427666727
C           -2.57271505617674        1.18651130133636       -0.21526946076018
N           -3.91754387273557        1.20510603551830       -0.05096574478212
C           -1.79788447006365        2.29779548193443       -0.66011887303068
C           -0.48471024662355        1.92380770091188       -0.68474250263988
N            0.53210169775452        2.63644876837255       -1.23842278451603
C           -0.39447745019158        0.49544725571058       -0.29918054630112
C            0.78162534080371       -0.21244580474629       -0.14557101183790
H            4.90365696854844       -1.34126930106685        0.52567425386799
H            4.64984623831509        0.31771704116498        0.88366713591939
H            2.90687878825593       -2.75988842148295       -0.52581837723110
H            0.67146657682406       -3.31465602402242       -1.66486641869215
H           -1.62627714542169       -3.64983423656361       -1.31309682406454
H           -3.15359839227664       -1.85032943181360        2.19472477123240
H           -2.87637134933621       -0.17264386778040        2.21681792539224
H           -4.40100298415621        2.08477071236083       -0.05510806414093
H           -4.36084435565215        0.40868388641534        0.37402883612317
H           -2.19467431179207        3.25896612376923       -0.92800879844765
H            0.35460362436527        3.61563436348646       -1.39064312508727
H            1.47709947676594        2.40351961280461       -0.98066013983274
