26
 energy: -43.192614961806 gnorm: 0.000701837007 xtb: 6.6.1 (8d0f1dd)
N           -4.68494689149338       -0.83912516410812       -0.58550554920503
C           -3.71593282786950       -0.24765615500005       -0.39941541249787
C           -2.54454780352459        0.47840202355837       -0.19277915700501
C           -2.39842386604279        1.86952686372422       -0.26654993822175
C           -1.08546654217517        2.22993797840169        0.01451352314107
C           -0.31530299716913        1.07916649418489        0.20813491503787
C            1.07148847868291        1.01711097222815        0.21299555259643
C            1.86762090782625        2.18806236811227        0.29158491876537
C            3.18542376361533        1.85892844206632        0.09111911198901
C            3.26368463360613        0.48592038906922       -0.19260300146122
C            1.99781961044369       -0.08857230986509       -0.09846220657473
C            1.81705104142832       -1.48369538521019       -0.32810693570518
N            2.75104192550986       -2.07864996271480       -1.10686403438459
C            0.95212843227070       -2.35824557388463        0.34886274364705
C           -0.25356503174341       -2.12235173861286        0.98520749919497
N           -1.16989368505424       -1.24987887950835        0.68745445913778
C           -1.29087099704115       -0.06681811220512        0.19998585483146
H           -3.19383862782981        2.55162089563213       -0.51133743765386
H           -0.71756679968782        3.23761650271840        0.00986607147604
H            1.49069747470301        3.16549133776153        0.52146748366651
H            4.02494708227380        2.52790903381091        0.14359931947555
H            4.18878716609798       -0.03619050814723       -0.36236606717312
H            2.77109172398553       -3.07861665219550       -1.20235042858258
H            3.46824730916344       -1.53410933945596       -1.55059255928023
H            1.29345409124597       -3.38727477551689        0.38226097860369
H           -0.60345434082204       -2.88086499574266        1.68170728328216
