27
 energy: -42.920170427201 gnorm: 0.000716556005 xtb: 6.6.1 (8d0f1dd)
N           -4.57679156939140        0.42453800187274        0.05245836065937
C           -3.47840135717185        0.77066539450849        0.02359070335571
C           -2.14285352710740        1.16318062144866       -0.00444167696500
C           -1.66955018499729        2.47061039647071       -0.07359244121031
C           -0.28062179482521        2.44576087602516       -0.08379949585230
C            0.18866564039642        1.12756775260254       -0.02817641818571
C            1.55196901628734        0.82015008685636        0.02097489232773
C            2.53450503406220        1.81803898836253        0.09492793333580
C            3.80073944630127        1.24150919060047        0.08761762635139
C            3.66002439862863       -0.13372077309631       -0.00073545905511
C            2.29257968939365       -0.46851676786784       -0.02990614069824
C            1.94637840896610       -1.80689278944491       -0.09927381225040
C            0.79117145522728       -2.56756963144659       -0.07888767883442
C           -0.57297481501297       -2.29515346069542        0.02089679627965
N           -1.37836784544442       -3.39544093720076        0.08063761810963
C           -1.29160363761656       -1.07684099444842        0.05830493636000
C           -1.02427682107135        0.26350559681874        0.00934400943821
H           -2.28533260302910        3.35159202900383       -0.11430258465547
H            0.33055888311756        3.32499638904117       -0.13843412428256
H            2.35300409944472        2.87298947775779        0.16083388805922
H            4.73109370419019        1.77836053055955        0.14216008182191
H            4.46270094487279       -0.84836840760103       -0.02757744073138
H            2.83343989952251       -2.43210749093208       -0.16457873332790
H            0.99051789220881       -3.63416464812708       -0.13117872408160
H           -2.37729723420990       -3.29943710974596        0.11134563354696
H           -0.98775700826206       -4.31821185749207        0.02394942987893
H           -2.36355368488018       -1.26183163963029        0.11462849140570
