30
 energy: -54.093948682617 gnorm: 0.000728894938 xtb: 6.6.1 (8d0f1dd)
N           -4.30997892961574        0.67772680234039        0.59385097653832
C           -3.41378477727170       -0.04344419647941        0.48829912127631
C           -2.34700851723763       -0.91441403432076        0.33428163793478
C           -2.38913602351555       -2.28454371908934        0.58318234106175
N           -1.21337944875852       -2.89712131656264        0.37178947876870
C           -0.34243585399045       -1.95297015547762        0.03875642892317
N            0.81670355109429       -2.25685062671959       -0.53110082061837
C            2.02012799385110       -1.84804478427751       -0.39946288987988
N            2.94207428657405       -2.30678213385815       -1.27281202038911
C            2.51848936117024       -1.00942629369772        0.69216975806674
C            2.05064474542180        0.22750448768540        0.92743814294154
N            2.64542489739867        1.03691961822062        1.89361873542696
C            1.03595520275534        0.91691781491966        0.12632070468013
C            1.17425311434810        2.25732922520979       -0.26917000534592
N            2.27968166589500        3.02059017320522       -0.19712122535558
N            0.03447652635004        2.76934358640473       -0.82588423908476
C           -0.87499219434948        1.82828229434140       -0.72946530670844
N           -2.08553445145084        1.95289586981272       -1.27389211962809
C           -0.31467521550646        0.58026420431546       -0.13918789653493
C           -0.97517073801966       -0.61714622871252        0.04092908653277
H           -3.24431182561497       -2.84831770998114        0.91137750073298
H            3.89417311465486       -1.99532940183123       -1.22394256184917
H            2.64198866187205       -2.88049649341978       -2.04155654487178
H            3.33041671279086       -1.40988028222830        1.28285856631727
H            3.19676000706065        0.53833439657033        2.57741670566835
H            2.02751863320985        1.72013669530625        2.30764371726517
H            2.19186081425545        3.99629614439663       -0.41808373984237
H            3.06814647831616        2.68633606924306        0.32991245574707
H           -2.84339957280486        1.35374972802397       -0.98135797610014
H           -2.31342218778246        2.85270715495998       -1.66418786447352
