24
 energy: -43.745030359528 gnorm: 0.000415486770 xtb: 6.6.1 (8d0f1dd)
N           -4.26311825358237        1.55631585556489        0.06461915860154
C           -3.15072835974367        1.26834051429952        0.06522837859367
C           -1.79445626764719        0.88521161313016        0.05603022110133
C           -0.89916470139721        1.77540815934752        0.65895155215530
N            0.32579929880650        1.99006616060966        0.31824304697976
C            1.41142429407370        1.43971915837768       -0.06341597342503
N            2.46230494199772        2.14424338588967       -0.51969967262841
C            3.50451131872417        1.32159897485734       -0.45521104482672
C            3.19262756226547        0.02190487124992       -0.02491621596318
C            1.81932832909931       -0.00765169334799        0.15277324547043
C            0.95824516336387       -1.09356842690179        0.23566582583736
C            1.40782236723986       -2.41950950265365        0.47512654832482
N            0.43748739582641       -3.30555816752009        0.37519538973088
C           -0.65555905518172       -2.64211786919277       -0.02734993208890
C           -0.45050461471109       -1.25851783023490       -0.11616529541998
C           -1.50869642063289       -0.39206029637102       -0.50622419633816
N           -2.44757261091547       -0.91699394225450       -1.31207310036513
H           -1.30709296780242        2.50859011246630        1.35067197002180
H            4.47872425486012        1.68105491429370       -0.73933428175830
H            3.88308909955379       -0.79089542111097        0.07528253841635
H            2.39917673951415       -2.71034744239685        0.76578906655763
H           -1.58015181634870       -3.17885432084972       -0.14833954217613
H           -3.30847793855668       -0.41959479393106       -1.47817618707497
H           -2.37439639500580       -1.87454656002090       -1.61069265322631
