30
 energy: -54.872540942611 gnorm: 0.000695580441 xtb: 6.6.1 (8d0f1dd)
N            4.15605035670010       -0.61712078164698        1.33030458258841
C            3.12955170766946       -0.47178322752237        0.83488979235161
C            1.83200018910954       -0.34100817730734        0.28114185092639
C            1.64872936465212        0.91147680115154       -0.34821748625955
N            2.71263740318347        1.61355646021888       -0.68289192022588
C            2.29216443473842        2.84098065105477       -1.07785862402800
C            0.94143192797400        3.01447593243471       -0.89286609512208
C            0.43165247338768        1.76848017141633       -0.46591414005548
C           -0.84465000566191        1.52783826040209       -0.01086404091826
C           -1.73664789399769        2.57172537852709        0.43190049580328
N           -2.89342537538042        2.10983816465440        0.81048557100909
C           -2.87367193063660        0.75812659673085        0.57599616130243
N           -4.00873471588261        0.03773627324393        0.82416620100584
C           -1.63122870393365        0.32312365684381        0.10143909527406
C           -1.38932132310207       -0.98755892661070       -0.41806816494774
N           -2.47499456688982       -1.58279173052458       -0.96853313157778
C           -0.22566429115216       -1.75312327720640       -0.30670564741473
C           -0.34216540969019       -3.07993438981301       -0.76818272421606
N           -0.44784210881542       -4.15842327559094       -1.15815892819382
C            1.04004232593207       -1.49713362567708        0.33207674771157
N            1.57859516265645       -2.57458771010449        0.95085067640551
H            3.00416682910975        3.53965203896366       -1.47837491767517
H            0.36320400534031        3.88651122432094       -1.12477205991598
H           -1.48879979065530        3.61100594442939        0.53354992282401
H           -4.69314449877288        0.54826282858419        1.36156947816099
H           -3.89790048417280       -0.93149007670567        1.07928202561741
H           -2.39322318826033       -2.49403353863961       -1.38958325622777
H           -3.29257769225018       -1.03051919866114       -1.16069215604476
H            1.12738021459901       -3.47221460986381        0.88558348004548
H            2.53619765850147       -2.53982014320348        1.26434374169816
