27
 energy: -51.752294047408 gnorm: 0.000548163305 xtb: 6.6.1 (8d0f1dd)
N           -5.32334806195398       -2.09667121265016       -0.17766756691064
C           -4.31088555206804       -1.55591326574807       -0.13859962758523
C           -3.08711112472299       -0.87805849516471       -0.08160579694451
C           -2.94439068638641        0.51838315040893        0.18629204951983
C           -1.61225243687350        0.84955344192658        0.11492597287227
C           -1.09186579641569        2.15802331412321        0.45880857084692
N           -1.68497533050389        2.79884686288461        1.48010566161133
N           -0.20978532838747        2.81424504215213       -0.23033042391062
C            0.76492343154006        2.44154370296266       -1.02177001527624
N            1.65650412466515        1.52840816594177       -0.81345477792290
C            1.64131312041763        0.35174302810976       -0.24932153497180
C            2.75857850948341       -0.40249222179778        0.11104934938347
C            4.08639249009257       -0.01315325715766        0.25335735484780
N            5.19732805859628        0.24598256816439        0.40077488735851
C            2.28968832965523       -1.75270969686058        0.22915394141480
N            3.04369932004602       -2.81165609819837        0.51106161339548
N            0.96926922828138       -1.86158648380390        0.02702112280962
C            0.49242281019499       -0.62979989296732       -0.17248388777875
C           -0.87006059617456       -0.37326968638051       -0.17100098994593
C           -1.82971203635239       -1.41926978597853       -0.24519980474073
H           -3.76551631502167        1.18821488157604        0.36999380635984
H           -1.41659727314523        3.74610297674062        1.68652463854055
H           -2.48477984031471        2.39682303803278        1.93538055236718
H            0.97823149036531        3.11848670488730       -1.84523295425177
H            2.61882867620212       -3.72300648953302        0.53035282295497
H            4.02704857872370       -2.70353248146275        0.69285951782535
H           -1.58276168594479       -2.44458620280945       -0.43758399676853
