34
 energy: -63.360092750696 gnorm: 0.000686311018 xtb: 6.6.1 (8d0f1dd)
N            5.65709551705848       -0.24584238787395        1.26351055198596
C            4.57773269445094       -0.31675090024239        0.87351248658679
C            3.26696838927296       -0.38460515361678        0.40015119867694
C            2.68253674003865       -1.48550121021579       -0.28969400963708
C            1.34485981444928       -1.24700589870297       -0.50997015876272
C            0.53961005175741       -2.13150310690787       -1.31795211771224
N            1.22574820607233       -2.75265578445734       -2.30748907165008
C           -0.75610227640175       -2.54436523011525       -1.09734953353308
C           -1.71428164489237       -2.17434467406758       -0.13067039980866
N           -2.57645787503173       -3.15009925841251        0.23630168679132
C           -1.98219067308269       -0.87983810488961        0.37130834120362
C           -3.03886904746564       -0.80333482210884        1.30429167147508
N           -3.83452931542552       -0.79677689940724        2.13478656828845
C           -1.47990081739254        0.37782370137048       -0.03932820541896
C           -2.28784200426587        1.52519741958549       -0.05178246836820
C           -3.68583312067912        1.55423397452556        0.02429909085204
N           -4.83314570141662        1.60489227379908        0.02617765367748
C           -1.49067227136008        2.65870971149903       -0.32248946071683
C           -0.16477096877275        2.26712023867547       -0.36969049748334
C            0.88839045636048        3.10313508560487       -0.74922883468789
N            1.74509918972817        3.80416868525933       -1.06276671947555
C           -0.09134878829669        0.83864865880580       -0.20840864977322
C            1.06070057743362        0.10527879139936       -0.05014928622803
C            2.30707055486009        0.61279350105506        0.52074390300177
N            2.44288937201039        1.73379515425763        1.25992804028588
H            3.22176797300003       -2.38033386642531       -0.54389569963720
H            0.77007513828025       -3.41486404953306       -2.91062669320328
H            2.16002266918349       -2.46061928511569       -2.53132417852149
H           -1.05532857135481       -3.40424811621710       -1.68855465388077
H           -2.47339549822724       -4.08218583372727       -0.12276549928237
H           -3.35894977091444       -2.94206659156716        0.83476380482433
H           -1.86302204064410        3.65280455752187       -0.49043483278305
H            3.37074582158911        1.96560111278992        1.57590140406995
H            1.79339428867322        2.49501721225622        1.15902943943996
