31
 energy: -59.425435757071 gnorm: 0.000966945894 xtb: 6.6.1 (8d0f1dd)
N           -5.65041983136864        0.66621327875744       -0.17190736719026
C           -4.51694234189272        0.73451949754311        0.00702996968158
C           -3.13413908187200        0.79495403975921        0.19801532354695
C           -2.43712181230765        1.69617794062671        0.99757275602025
C           -1.05969590937954        1.48776517696883        0.83016689846630
C           -0.12827436541777        2.38522445967061        1.32772605145521
N            1.01575174561593        2.72849871158804        0.80968305675155
C            1.93465100600863        2.21913084794809        0.05429710269771
N            2.62543149314307        3.06716542063305       -0.73260191927807
C            2.40610486873111        0.85088528106033        0.10642554555381
C            3.80071582983881        0.70293056601278       -0.03707095632646
N            4.94020251525342        0.66299058044970       -0.17994464747907
C            1.67421898576378       -0.31579239801287        0.20347824864065
N            2.37032351416014       -1.46711568195200        0.25421473638476
C            1.51092182337366       -2.46442945393908        0.10100170641943
N            1.88323013918401       -3.74385844933698        0.12342172365251
C            0.16555662614720       -1.98946853821784       -0.08845200668142
C           -0.88506802714233       -2.89203130192098       -0.16200485269814
N           -1.68005999695263       -3.72598767487363       -0.22312353096627
C            0.20698063933599       -0.59086649082227        0.02437976859365
C           -0.89145074124830        0.27617268622153        0.00884562471599
C           -2.20152900142204       -0.08460509062986       -0.41744463322670
N           -2.55544593310399       -0.97534960175282       -1.36745239524073
H           -2.87777612671445        2.48338284041149        1.58070734294226
H           -0.45468626471176        3.04646300341552        2.12635640314223
H            3.48909389750163        2.77072322397041       -1.15600971741631
H            2.40840514052816        4.04911602863719       -0.69682783361227
H            1.20097144575078       -4.47739263429256        0.03656843462488
H            2.84504405448620       -3.96417758649393        0.31523811749960
H           -3.53179991453532       -1.20970060211870       -1.44854360686597
H           -1.90068735135578       -1.66681482131091       -1.68900386440959
