25
 energy: -49.049741609108 gnorm: 0.000655254849 xtb: 6.6.1 (8d0f1dd)
N            2.68644019590286        4.12603514045043       -0.36671286286909
C            2.17426907375493        3.10842753926870       -0.24771068993527
C            1.54306927402867        1.83817635440502       -0.10673636961180
C            2.44710769244852        0.78551800708770       -0.13387937440252
C            2.33650764523195       -0.59245874122916        0.01023895490367
C            3.45972177804382       -1.41366594798838        0.06290436607676
N            3.15059707588583       -2.72666632972891        0.18194815218477
C            1.84975740671439       -2.82514423865350        0.17915714632572
C            1.20099113900234       -1.53959256121514        0.08486746523490
C           -0.15716627370512       -1.44146792416953        0.01841728430242
N           -0.86374508032999       -2.61865861280766       -0.03862990896299
C           -2.12229359000008       -2.32274976613360       -0.13982763526642
C           -2.35930536910849       -0.90411345808793       -0.11654254980303
C           -3.64270619423323       -0.36502781928073       -0.25856807608146
N           -4.72919283703058       -0.03138500840518       -0.41985564579688
C           -1.11194407972577       -0.29792909410233       -0.00758687294649
C           -0.93120425560816        1.09928471908057        0.14215867672242
C           -2.13201997925153        1.82322506115259        0.40657806878734
N           -3.03878798342836        2.46991814946846        0.67423526504651
C            0.15249880629393        1.95761462728255        0.08682338170784
H            3.47816129539991        1.10826149932326       -0.25646077261147
H            4.48828149469954       -1.10429417143177        0.02892414756893
H            1.33954571100744       -3.76599523252977        0.25104628070182
H           -2.87729620951760       -3.08317830886505       -0.23007973626715
H           -0.14581835037501        2.99912895380945        0.19611339829145
