30
 energy: -55.689262448841 gnorm: 0.000501950601 xtb: 6.6.1 (8d0f1dd)
N           -6.09248300872683       -0.39599406565415        0.54043526238711
C           -4.95412546966522       -0.39888705942835        0.38916864559587
C           -3.56560521160410       -0.39250584896094        0.20551010556234
C           -2.77071913816115       -1.48846471002315       -0.11077582742607
C           -1.41915289528288       -1.07923110617859       -0.15370216853150
C           -0.44806041465128       -2.03726284734356       -0.37780647000044
C            0.93457277031685       -2.14310843971758       -0.24036598668306
C            1.36193331731913       -3.47626536842563       -0.47974941650833
N            1.68891036209143       -4.55666471822924       -0.69229228495654
C            1.98489783485805       -1.26691465835123        0.14254835749289
N            3.14775806406931       -1.87374960436910        0.47198531139820
C            2.02000845981504        0.15392171139832        0.15266251708794
C            3.32549662947682        0.69573595147365        0.34009444820375
N            4.39788760638153        1.06574681223529        0.51758332352917
C            1.10707693288962        1.18882150687916       -0.03455307046753
N            1.66800000164368        2.40321932800934       -0.13319404299107
C            0.67720095756546        3.30182013867196       -0.20761338300508
N            0.93525710321017        4.60206086948967       -0.34391833415345
C           -0.59726253466016        2.68068673720433       -0.12827318555228
C           -0.38317685525562        1.32201279970501       -0.03547164740779
C           -1.41350574088680        0.36870191189941        0.08247680486894
C           -2.73488708038750        0.74285125647686        0.30414351101872
H           -3.11828475761215       -2.49512476420661       -0.25278286845527
H           -0.88882260770303       -2.99606110339983       -0.64611662030936
H            3.23426523813736       -2.87496295438338        0.40596605499755
H            3.97022231551760       -1.32558888538101        0.66546193645688
H            1.89514289735332        4.89810498883013       -0.39334381339386
H            0.19454422544407        5.27813661898551       -0.39488927153213
H           -1.53408946769887        3.19712559184964       -0.17434240872533
H           -3.08774667179403        1.73095861774383        0.52931373439893
