26
 energy: -48.795534828454 gnorm: 0.000829339822 xtb: 6.6.1 (8d0f1dd)
N            5.53496611995425        0.55159446529707       -0.25442683266600
C            4.44012333973458        0.21932111778560       -0.16639456697564
C            3.10834201057208       -0.20767279513549       -0.06400149165069
C            2.69215219801141       -1.46263254820664        0.39272651220122
C            1.29859205388699       -1.52949649274749        0.28485275866912
C            0.58694833586909       -2.69964294256656        0.52166278025285
N           -0.44531628622529       -3.09934938091717       -0.15263581105417
C           -1.53612662154097       -2.68691242642848       -0.66091834070304
C           -2.27565417085693       -1.53100469086082       -0.28508575079601
C           -1.81366816839534       -0.28796810737554        0.02570587029048
C           -2.76149796426747        0.78037239801535        0.24243197574499
C           -4.13406753211305        0.58622166238113        0.42532184034136
N           -5.25832996032637        0.40235192497640        0.57247155692025
C           -2.09697275649023        1.98221429722204        0.19310536704934
C           -0.71511229777930        1.73638242316910       -0.01909077094338
C            0.18039369495114        2.81231564378929       -0.06848158923953
N            0.83382022228789        3.75705257612508       -0.09422343525622
C           -0.47036147589977        0.35541447306764       -0.08259473045280
C            0.82248534888075       -0.20156700193675       -0.16854654204458
C            1.97352557175751        0.56129130895198       -0.37812190346321
H            3.33445069834099       -2.26491199552484        0.70348048903447
H            1.04625082174786       -3.46688034349018        1.13826416609875
H           -1.99602711395827       -3.35641442587682       -1.38294255256273
H           -3.35429066067093       -1.63981499655934       -0.33401366423724
H           -2.53233538262326        2.95847624943540        0.30792746750036
H            2.01217946955279        1.57575664131167       -0.72195213785648
