32
 energy: -54.325046504149 gnorm: 0.000831784582 xtb: 6.6.1 (8d0f1dd)
N            4.14297534730474        0.90633128696820        1.38065732872891
C            3.11559944229012        0.94531344261250        0.86079734148495
C            1.83875115629117        1.03027270529657        0.26544997531025
C            1.43535148079917        2.32639360352419       -0.06141535580545
N            2.34492104455743        3.32092803793355        0.14769764309140
C            0.23712177002216        2.78729612530088       -0.68004265133700
C           -1.05264215083869        2.35940695812998       -0.64404225628061
C           -1.72366902407613        1.26173689893213       -0.07135469593064
C           -3.10310083715594        1.30062109945180        0.16026616428605
N           -3.93146584185747        2.38637018013319        0.09607689529429
C           -3.53945504188813        0.01957290583890        0.61328813964409
C           -2.47980261088915       -0.83124373506227        0.58833303215988
C           -1.29993463983139       -0.11879991174521        0.18011894167589
C           -0.10434472514632       -0.76516977985680       -0.02906039498578
C           -0.00219486735189       -2.18715665197224       -0.17000299625367
C           -1.00279191939232       -3.13633403111400       -0.35297375851582
N           -1.73974898222518       -4.00572186966480       -0.52814831423256
C            1.35245769003385       -2.53720048733116       -0.25068086825296
N            1.84272024347403       -3.77358170198553       -0.43495735070742
C            2.12255332379858       -1.35199386376491       -0.11205578759146
C            1.29023120376847       -0.26094418912111       -0.01405232672780
H            2.07525105014908        4.28005809675743        0.02702198655419
H            3.21184170361007        3.12016008168969        0.61685230369570
H            0.37830631358697        3.75199451891200       -1.15789872428667
H           -1.73861150565495        3.06612735510475       -1.10762651318950
H           -4.91852114586602        2.19149736955446        0.05530086864207
H           -3.62639785764294        3.18049480158874       -0.44336539195549
H           -4.54528232065741       -0.21067177554400        0.91417991171288
H           -2.49407397032736       -1.86160095726099        0.88363765448930
H            2.83270846526392       -3.92546189249627       -0.50109710268910
H            1.21258764794133       -4.54901302232074       -0.54845373199276
H            3.19679051601609       -1.32847500008669       -0.10473780463290
