24
 energy: -42.976348929885 gnorm: 0.000522515594 xtb: 6.6.1 (8d0f1dd)
N           -1.28592700249120        3.36959505422051       -0.75139081759059
C           -0.97228011280053        2.25682778205682       -0.05059175590988
C           -2.03398559771277        1.67996914365553        0.73506033968485
C           -2.34078959604936        0.36733637951046        0.87530439680271
C           -1.78286121488980       -0.81852698003195        0.33893249528350
C           -2.51496827074821       -1.99984842859943        0.30695062730467
N           -1.82578225727320       -3.04193464009146       -0.21207569903263
C           -0.61638329214860       -2.59886021321509       -0.46611537331170
C           -0.47414242760160       -1.20672788015138       -0.18342830924739
C            0.74186467061793       -0.56181560706343       -0.21542668810823
N            1.91956773834982       -1.17873819134720       -0.31740875104024
C            2.82603780503584       -0.24414127687045        0.01895053682049
N            4.12501854563476       -0.52126137881649        0.08848119475148
N            2.35322387083528        0.99562627812380        0.28878157128638
C            1.04745936998503        0.89720351419477        0.07913288630821
N            0.27658740526033        1.92468261249683       -0.05768238957236
H           -2.22485804001998        3.72362675098290       -0.76590376052796
H           -0.57071077262533        3.82529737128056       -1.29111791926003
H           -2.72297842113386        2.40231715769984        1.15459054039760
H           -3.25611716219243        0.17156237018831        1.42641529856280
H           -3.53505400282593       -2.13413144446558        0.62123990500287
H            0.15479019016196       -3.23110351082673       -0.86333425097924
H            4.43976147279680       -1.44821719450896       -0.13459986876657
H            4.76267728323491        0.19101378357741        0.39473118844081
