28
 energy: -45.833853901708 gnorm: 0.000704378995 xtb: 6.6.1 (8d0f1dd)
N            0.12875057868465       -3.21835161808698        0.33079380709787
C           -0.64261808099160       -2.09589235301636        0.23440387649533
C           -1.99566634891389       -2.01367733788459        0.38175034448922
C           -2.38171217332068       -0.64475065891747        0.22392529098125
N           -3.65966934714253       -0.19880875246281        0.31089912375336
C           -1.24148778065485        0.13987079477798        0.07399354928893
C           -1.24017746866678        1.53926063623666       -0.30599025444261
N           -2.23059265584918        1.92099757285409       -1.18933261906243
N           -0.52492698415890        2.47994127925837        0.18034778725883
C            0.52946883122208        2.52123258009485        0.99944570484590
C            1.70770165224954        1.84814789337206        0.91668301429777
C            2.04396604990035        0.71229732612914        0.13181318326938
N            3.31143090749693        0.45575129811164       -0.10870732928312
C            3.38522410904796       -0.76031766059984       -0.72019058834052
C            2.17462781796887       -1.38984669428332       -0.76403844259502
C            1.21488361122123       -0.46377459893637       -0.24862287784090
C           -0.10628927017643       -0.73620633277028        0.02467028237027
H            1.10708210933966       -3.07045028060428        0.52518668318044
H           -0.29350249042821       -4.00833324337268        0.79228864531123
H           -2.67271376993544       -2.82456431224527        0.57566457845522
H           -4.41458313578606       -0.85976970111142        0.29152861797540
H           -3.85059216033263        0.76460813378766        0.09701591034174
H           -2.51700259689835        1.22909888023455       -1.86382845780474
H           -2.12217791718342        2.85567326482991       -1.55474516692156
H            0.46977505201633        3.35187107981370        1.69799618361753
H            2.54105343509510        2.23660201050912        1.48702374213389
H            4.33201675440266       -1.11026144339574       -1.09259226508353
H            1.95576866119342       -2.32353522762260       -1.24598148468921
