31
 energy: -54.592887918858 gnorm: 0.000482772808 xtb: 6.6.1 (8d0f1dd)
N            3.92537410588159        2.01785611134898       -0.71282315142316
C            2.78792184717524        1.92785917327526       -0.55555573109698
C            1.41017558846832        1.85659164852558       -0.36508909017600
C            0.52200182479255        2.90712789146247       -0.60461407489626
N           -0.74596447721908        2.54046615765257       -0.45136270206804
C           -0.77618141096086        1.22026461350796       -0.22668150176176
C           -2.01367798652363        0.65525520899166        0.09758239680122
C           -2.95159954057246        1.62816915410256        0.51465271042932
N           -3.74163888370541        2.37067349850511        0.89772431800439
C           -2.54226637183171       -0.65130391350805       -0.11155065063140
N           -3.86888463717255       -0.78266934229262        0.14949860990551
C           -1.93422525999245       -1.76154093396282       -0.69717408302151
C           -0.63203088308462       -2.26002313945343       -0.75599725063919
N           -0.49528054761987       -3.42117699319367       -1.44953125137096
C            0.52197606804219       -1.86191441429640       -0.03026964368619
C            1.48808029156283       -2.77529000440740        0.37425291394193
C            2.52286301856317       -2.12125685948069        1.05829992060264
C            2.28974716037959       -0.76060991961149        1.01754602937247
N            2.98918970565144        0.17355478309275        1.72071066804940
C            1.04479961186405       -0.53338487580752        0.30961538575271
C            0.60934909136551        0.69504086892536       -0.13686695513577
H            0.77307686342981        3.91073375135821       -0.89752575727011
H           -4.34721993992107       -1.63762208501129       -0.07034705562559
H           -4.41132949071801        0.01770820226525        0.42842820086616
H           -2.66090396846685       -2.45858114839313       -1.10744362242329
H            0.41899261541171       -3.80483960952256       -1.60336260288396
H           -1.27085388392402       -3.80810289043967       -1.95693032184388
H            1.42641102252061       -3.84392052708612        0.26786249359144
H            3.35418453728565       -2.60058162522734        1.54002854514295
H            3.91566157233650       -0.09050427635124        2.01229306953024
H            2.88156309558173        1.14426700513142        1.47892026696385
