33
 energy: -57.251595728000 gnorm: 0.000727621895 xtb: 6.6.1 (8d0f1dd)
N           -3.80293315049027       -2.56415122694484       -0.90087892037008
C           -2.90881944409398       -1.91998620913634       -0.55717459496483
C           -1.82666010040984       -1.15090453965692       -0.12737627515764
C           -0.99504182975701       -1.77890256050045        0.89139565868951
N           -1.65194818239581       -2.36860070892106        1.92038084635855
N            0.28180622394801       -1.89974336484025        0.85863879243871
C            1.26376488485043       -1.36688511832149        0.16188203021108
N            2.31053890292717       -2.07867442645218       -0.19512381901667
C            3.26467820007315       -1.17812386691558       -0.58459667278150
N            4.45417061580304       -1.63337274187894       -1.02900542014973
C            2.86379966635297        0.14573044421149       -0.42094721337786
C            1.51873485617093        0.09994667587436       -0.02479952680570
C            0.61825115256436        1.13530145088196        0.13572950473140
C            1.03073838312434        2.49908669391986        0.39723507002929
N            2.32080781943051        2.88634248722740        0.66520595419953
C           -0.07688697262349        3.30917822685014        0.38221387367166
C           -1.20229822647790        2.52034025385925        0.04686434875860
N           -2.46360604724510        3.05304326842178       -0.11093575049077
C           -0.81995247496059        1.17339662261251       -0.07250950950409
C           -1.72001022477239        0.16916095549648       -0.55457346468476
N           -2.70804526565752        0.62381554423981       -1.38784054360218
H           -1.12005645999567       -2.96900982854633        2.52848503643532
H           -2.64100943328885       -2.53295229903470        1.83520885161017
H            5.09441840301879       -0.99855083455416       -1.47192864487516
H            4.51370069997275       -2.61283453284622       -1.24804771711661
H            3.42479885336639        1.00576204322952       -0.72927714257891
H            2.92698310368218        2.15571870657299        1.00693009922463
H            2.41012753103074        3.76604475385079        1.15062034450209
H           -0.10295791267804        4.36293067154492        0.59220693324773
H           -2.59228468521168        3.95289077333441        0.32626773212696
H           -3.23296283576302        2.41458877967334        0.02662283914627
H           -3.31358030988785       -0.06010600064556       -1.81289423422990
H           -2.53827081370684        1.47326926719295       -1.89800747207578
