26
 energy: -48.000745670669 gnorm: 0.000850011797 xtb: 6.6.1 (8d0f1dd)
N           -3.54964507614370       -3.33856953843681       -0.00314750769341
C           -2.73573092078316       -2.53051673235669       -0.00074627712542
C           -1.71242326114133       -1.54317589201871        0.00040384196949
C           -0.41733108645996       -2.13546307307106        0.00743187053415
C            0.86958421817158       -1.69265278408631        0.00925151291456
C            1.93080973100993       -2.63628721356604        0.01618965339206
C            3.14698170442334       -2.00154343371777        0.01534929519026
C            2.93736614103070       -0.60359413557793        0.00806803197114
N            3.87281348072363        0.34357038451661        0.00480353800327
C            1.52869690036483       -0.34977770217018        0.00448059035521
C            1.03706044476606        0.93174955002774       -0.00077090463074
N            1.89235103366112        1.99150042651360       -0.00306074993453
C            1.12504571611096        3.07137279752137       -0.00636754293644
N           -0.18558952117705        2.86069338476417       -0.00677144815710
C           -0.33857224691827        1.52734569154221       -0.00376984034331
C           -1.63823312416537        1.03056247997004       -0.00485648604840
C           -2.61968348906317        2.06144005624007       -0.00755882091652
N           -3.45868349276451        2.84198628471283       -0.01173045315264
C           -2.20612412743605       -0.25547295277890       -0.00428188544149
H           -0.48491414014842       -3.22139707685224        0.01202735839453
H            1.78112098017061       -3.70062878220063        0.02108702521228
H            4.11212404169295       -2.47442332987566        0.01950094752255
H            4.84912549261654        0.10773640603874        0.00896432074788
H            3.51540960146498        1.30380142999484        0.00077983861978
H            1.54096748952091        4.06265779517520       -0.00857174532392
H           -3.29378668112681       -0.21816140590860       -0.00800481152332
