23
 energy: -40.018697049254 gnorm: 0.000679548401 xtb: 6.6.1 (8d0f1dd)
N            4.33746856034415       -0.74732248290334        0.00706096866828
C            3.19085563702283       -0.72201423033163        0.00585804217294
C            1.76663216652628       -0.73930788888491        0.00457638683806
C            1.27634460911404       -2.03635251349828        0.00599498030895
C            0.01791216945657       -2.64610545618602        0.00596082076802
C           -1.28500444345150       -2.19935275670977        0.00433776258811
C           -1.90386009122477       -0.94825840117241        0.00207422971582
C           -3.28763247364176       -0.82357469845481        0.00070962510580
N           -3.70740221728973        0.46576897130496       -0.00135762445056
C           -2.64250989770169        1.22081260210986       -0.00152144793172
C           -1.42366107327201        0.45255008059872        0.00064142378781
C           -0.20520428187925        1.06532090374594        0.00087865538274
N           -0.18229071805028        2.43276546394782       -0.00099987762047
C            1.07319432662076        2.80315644780763       -0.00049980795364
C            1.97176306870312        1.70730422228452        0.00170332670948
C            1.20396499380712        0.56021446238270        0.00251536231686
H            2.08133020536236       -2.76718911122078        0.00766720874876
H            0.09382733931295       -3.72799515041396        0.00750631196194
H           -2.01668817091707       -3.00220672973021        0.00487650660553
H           -4.00921479997744       -1.62026147526584        0.00119068103931
H           -2.69014928122313        2.29217108713888       -0.00298822150077
H            1.33637909793243        3.84646815449944       -0.00149851605924
H            3.04206209982604        1.77405255385153        0.00252086039800
