30
 energy: -55.686607137156 gnorm: 0.000683114137 xtb: 6.6.1 (8d0f1dd)
N           -4.82305911126114       -2.26486140896582        0.35229171367795
C           -3.80765457839518       -1.74507020497822        0.21602626910849
C           -2.55638206214269       -1.10024330672082        0.04934974556132
C           -1.58109654418158       -1.97190056470215       -0.43089859514547
C           -0.19837594215481       -1.96266483052808       -0.51220903862172
C            0.80078047772879       -1.04663711062409       -0.21086124330587
C            2.14315151143549       -1.47012564582052       -0.12386491726498
C            2.61868645053591       -2.77399733034909       -0.25972655796989
N            3.04897789735187       -3.83522349510898       -0.36870755561937
C            2.96848863523821       -0.35649936045993        0.17007840582803
N            4.28587125954016       -0.38048550447640        0.37631787786383
C            2.14003059192890        0.79800961737297        0.20874625079718
C            2.67077017376006        2.05187074135192        0.51972347891149
N            3.21276299066889        3.02389219672550        0.81001820065592
C            0.80604701630808        0.42370030758120       -0.02859426696738
C           -0.22136979235710        1.34344301198255       -0.22359353272209
C            0.02466152058307        2.69182947114693       -0.59563805441037
N           -1.08815309256336        3.38551767995655       -0.73307434376708
C           -2.09536263376044        2.58906582395951       -0.35577154231728
C           -1.66969254560611        1.28534721573870       -0.06941564209581
C           -2.57786778851466        0.29074393760839        0.36019114784428
N           -3.66982762988002        0.73528878425877        1.00967546405311
H           -2.00478057714342       -2.93545914082421       -0.70127937812691
H            0.21096364056108       -2.92778538322635       -0.79743695641329
H            4.77753101786841        0.47148103552441        0.59139250533696
H            4.79267402872253       -1.24878883909424        0.33083390224960
H            0.97422130176368        3.12372526662758       -0.84659264503531
H           -3.10581352545432        2.95516876704093       -0.40323298428675
H           -4.43937595570900        0.11633817132515        1.21128938609680
H           -3.77486902667138        1.71914519997785        1.19028551418334
