31
 energy: -49.798067704280 gnorm: 0.000693601223 xtb: 6.6.1 (8d0f1dd)
N            4.23506103021847       -1.57470175607821       -0.78014519665888
C            3.21912993603726       -1.14871029861405       -0.43953357667190
C            1.97039634230924       -0.63465545860226       -0.04173938056577
C            1.21802349499827       -1.55930777146151        0.75199083010814
N            1.98172272908998       -2.45545253445697        1.45629861906579
C           -0.15076183359388       -1.77157070110308        0.80658520219867
C           -1.27171746177987       -1.13564887832129        0.27928386294171
C           -2.48304536153965       -1.79899070138280        0.15012551206200
C           -3.46235092902868       -0.89261304844175       -0.29777016930749
N           -4.75228144306549       -1.19293576453743       -0.56447306880952
C           -2.88368468077856        0.38522649676910       -0.37530578663295
C           -1.53891878781600        0.30072028994621       -0.04387108300614
C           -0.71858956056987        1.41406483611424        0.14657600435253
C           -1.25366644443480        2.70248111081126        0.39450078566501
C           -0.22652767251765        3.61296675873504        0.47872776824480
C            0.97600995598619        2.94796008859845        0.19926882750173
C            0.72099992220329        1.58771158849576        0.02312035060470
C            1.74242305280169        0.69832329234595       -0.41604905883553
N            2.68251710605259        1.27405933267858       -1.20945477062206
H            1.54706525815858       -3.29468904238604        1.80050300319055
H            2.97224210491690       -2.49739410184212        1.28192921464802
H           -0.40390126958282       -2.71279294314625        1.29002662730101
H           -2.64438634468977       -2.84663273185306        0.32701761827689
H           -5.33940039875651       -0.50361095486576       -0.99887472382241
H           -5.03885274625253       -2.15475297246736       -0.60818256091586
H           -3.40112450906571        1.27450030322434       -0.67941214872881
H           -2.29306341325873        2.90638146587109        0.56796739596367
H           -0.31740915182637        4.65757388424298        0.71757304683794
H            1.94755143232379        3.41217116328550        0.21367205908943
H            3.53736598658310        0.79253425391578       -1.43188272137928
H            2.59440173457803        2.24829638062648       -1.43477943739518
