29
 energy: -51.181312734487 gnorm: 0.000619906393 xtb: 6.6.1 (8d0f1dd)
N           -5.26878905783926        2.27063777958269        0.36033637101006
C           -4.29318238269407        1.67213951244677        0.25399212714928
C           -3.11098204128814        0.93891966457475        0.11804602846415
C           -1.81624613166712        1.44431009530679        0.18561650990830
C           -0.89963600049623        0.38497278931971        0.04321511520676
C            0.48673125719008        0.59506337785215       -0.07900837923693
C            1.02635590177835        1.83525841984386       -0.38403740438614
C            2.43066545517178        1.76591427613508       -0.38458009058222
N            3.28157343281499        2.75786038955312       -0.67941582849123
C            2.80601087995224        0.44525240910811       -0.02547295905224
C            4.12099090860253        0.01044975161926        0.10420953925060
N            5.22218163649100       -0.31219099194538        0.20333688690206
C            1.64090278848163       -0.32425734097464        0.17041974841732
C            1.70888643872994       -1.58846951685634        0.72988910172509
C            0.72567755087643       -2.55953529023022        0.91985771174315
N           -0.35966376341185       -2.78051979171418        0.24878688135335
C           -1.23457934455828       -2.13395580010206       -0.46214075845539
N           -1.87944630841974       -2.82793704442738       -1.42098637154272
C           -1.70014283480519       -0.81295812327970       -0.16452013549593
C           -3.03402116611669       -0.45001157423338       -0.14459772317140
H           -1.56631848905693        2.46963439657991        0.37923775461788
H            0.46825601772629        2.71853785649533       -0.62748548580272
H            4.27375433327994        2.59688556812840       -0.64521424864174
H            2.93946011072124        3.67361302135320       -0.91005983804498
H            2.69145379370687       -1.86404763480207        1.09812109457692
H            0.95640347300020       -3.35109611662515        1.62882036968525
H           -1.66863701691456       -3.80168346017766       -1.55742812595753
H           -2.68491165785081       -2.42694512414910       -1.86775480048760
H           -3.87939003370450       -1.10613548658140       -0.24871591526109
