29
 energy: -51.156477030890 gnorm: 0.000896374529 xtb: 6.6.1 (8d0f1dd)
N           -4.72988882571611        0.44634070650673        0.87570239664880
C           -3.61750336964618        0.65069330902586        0.67159673620659
C           -2.26622412456023        0.96033780928481        0.49188692422399
C           -1.72615578257488        2.28976607396935        0.66715871502519
C           -0.40382029548465        2.25126163057053        0.39203606213597
C           -0.00923412876674        0.88117135268537        0.12139515292020
C            1.29335952711338        0.50874387760648       -0.11867738658987
C            2.32857335338902        1.46609677113863       -0.58339868563310
N            2.05063616548007        2.66698955416496       -1.13925706966029
C            3.55876412429964        0.89544505252028       -0.43063731776113
C            3.37804912992777       -0.40686722387311        0.12186439846521
N            4.38695567179581       -1.24189537852860        0.42404399023447
C            2.00517943252972       -0.68947690209676        0.22855141754501
C            1.48824922819270       -1.84530835212242        0.88946169291022
N            0.41911143610391       -2.49362308597986        0.66156324550457
C           -0.61348795318733       -2.33054388572203       -0.16398999696143
C           -1.45237081822777       -1.25899162878556       -0.27975206754052
C           -2.63714118244262       -1.45865739409775       -1.02006907357459
N           -3.56299682419821       -1.62992297966816       -1.67753456493402
C           -1.23532526549200        0.08797390525127        0.20098294263182
H           -2.30700977828252        3.13878368666330        0.97668977904947
H            0.28591819121545        3.06417258368490        0.51960174440297
H            1.10850973237768        2.85527445510844       -1.43633645250348
H            2.79412065042217        3.14500097904104       -1.61977022989552
H            4.50570375110315        1.32960377369135       -0.69015205622369
H            5.33794481531251       -0.92597969978989        0.36317377449304
H            4.20011940485175       -2.14540784149872        0.82127846303357
H            2.11718936386344       -2.28068519652563        1.66642771797211
H           -0.89728997859933       -3.25095295122438       -0.66695405312549
