32
 energy: -58.345512754453 gnorm: 0.000886729678 xtb: 6.6.1 (8d0f1dd)
N            2.23889685668397        3.86518548923283        1.27019008109386
C            1.59302801564128        3.01715689639074        0.84124520167584
C            0.78642626504242        1.97339135613875        0.32786411655923
C           -0.54221259612084        2.28487695922078        0.25672135396894
C           -1.70083048124899        1.63042209315274       -0.23554047824186
C           -2.71518682864504        2.55529113193676       -0.56244085092929
N           -3.54459476541296        3.30372965942590       -0.84136198104735
C           -2.05914938956475        0.28433885817741       -0.37639377528340
N           -3.30555556799126        0.04538024731147       -0.87346815843231
C           -1.35762420134057       -0.88865221506878        0.04550716050994
C           -2.02152234202164       -2.08545551586362        0.38876171397611
N           -3.34835926322964       -2.28395435774713        0.61828626232974
N           -1.19101286077394       -3.15687489733247        0.50080647357215
C            0.01300524867496       -2.72077529253892        0.19740825668343
N            1.10344973454090       -3.46924937156265        0.16855427883957
C            0.03051981868130       -1.25803178718310       -0.03827820207579
C            1.21347136371798       -0.59394602771091       -0.21184959121329
N            2.36749227436872       -1.31253551137498       -0.47038074173807
C            3.35549920702022       -0.44692061972173       -0.54458035709376
N            4.62968335393292       -0.80452119127937       -0.78637370947445
C            2.90929195725954        0.89534396683542       -0.28861358630492
C            1.55857876006945        0.82857726021711       -0.08332509209308
H           -0.75676311290155        3.30954513315259        0.55608094973513
H           -3.54628114726598       -0.88406827381693       -1.16992745059270
H           -3.83540799159482        0.81794462378621       -1.24443687471293
H           -3.55445573470292       -3.16811423349513        1.05706603507122
H           -3.89340579574276       -1.49623623146066        0.93172489567212
H            1.95522055510741       -2.95700297161230       -0.09142820239959
H            1.05151682915753       -4.44197590848315        0.41418973391340
H            4.83024540015782       -1.75237099735715       -1.05183340645793
H            5.31742007752903       -0.09508763178216       -0.96353417131446
H            3.53601969227082        1.76535765081014       -0.25896039680089
