31
 energy: -55.393090929447 gnorm: 0.000597520571 xtb: 6.6.1 (8d0f1dd)
N           -4.17116139437610        1.68294967204009        1.77452523799458
C           -3.33323655927719        1.17263619735846        1.17964968208562
C           -2.28061649892055        0.53541993804771        0.47345194492215
C           -2.29799285151968       -0.83367038456688        0.55965871362652
C           -1.52721566431483       -1.83703274491654       -0.07036784495086
C           -2.23721702876147       -3.05253020210915       -0.20467849997209
N           -2.80681562650106       -4.04385433106684       -0.32272013582866
C           -0.19407506051078       -1.87569860943899       -0.50002764946998
N            0.20344185337419       -2.97721703892713       -1.17580813013491
C            0.86281812496153       -0.96546371341249       -0.15221755620648
C            2.14574201803756       -1.41960856844804        0.06294776589957
C            3.03196550080323       -0.32062729409592        0.25658564529646
C            4.38277468379169       -0.39962552354188        0.59912713651448
N            5.49633134313676       -0.43424992230724        0.88288730460969
C            2.31502640158496        0.85109955115641        0.06551854608497
N            2.80159142151849        2.10710412589858        0.20149707698917
C            0.92256409986312        0.49810243631149       -0.19985027242316
C           -0.01886753902452        1.42506795600160       -0.55499475252535
C            0.28502920318411        2.69626269056309       -1.14964273169568
C           -0.86999485331000        3.40630936286732       -1.28295506920257
C           -1.93858130395383        2.67180202289247       -0.68697555302701
C           -1.48053540372202        1.44309642378020       -0.29119342723090
H           -3.14567372764728       -1.23406961141467        1.11022783363286
H           -0.44215518035551       -3.73287200250630       -1.34013429265878
H            1.16550410117810       -3.09204412440106       -1.43899887745185
H            2.45711882739566       -2.44540958191895        0.14982067309955
H            3.71558465438315        2.20260608735545        0.61522848371317
H            2.15286280665917        2.86685276960532        0.32697501329931
H            1.23724320866056        2.95152068074579       -1.57480540324919
H           -0.97825952508082        4.36357436112747       -1.75960029295767
H           -2.94859795495685        3.02404661612135       -0.59077460168337
