28
 energy: -51.435188637197 gnorm: 0.000938014127 xtb: 6.6.1 (8d0f1dd)
N           -4.84790082696280       -0.49382668874860        1.50103822698652
C           -3.86519761814605       -0.58349593194163        0.91529354140749
C           -2.63476108316015       -0.72929342023552        0.23722526683597
C           -2.03795490614244       -1.96412066489367        0.27445385379685
N           -1.08926684085082       -2.43825499840127       -0.51578395045472
C            0.09722070251875       -2.12915420437762       -0.84613310221912
C            0.90568920628108       -1.07596742933860       -0.32771355358163
C            2.29804918153971       -1.12405839951290       -0.22388681160299
N            3.10096213289413       -2.18350914544972       -0.42391839492394
C            2.78014067978852        0.16411085663150        0.20247743494239
C            4.10771096895020        0.46275426658084        0.49938221938104
N            5.20655160291497        0.69727382365639        0.74827268056410
C            1.69889949472700        1.02939773112170        0.26608854371877
N            1.72914576251333        2.30440577510210        0.68560361269103
C            0.48684377930977        0.29352175572514       -0.11362092553478
C           -0.69653432686934        0.92180685606838       -0.42760505954148
C           -0.82722359500593        2.30388442356506       -0.78925034889411
C           -2.15495944892692        2.53560341773908       -0.98815354419518
N           -2.91876454903330        1.45347551540990       -0.64863713571554
C           -2.11514642168847        0.46267264212027       -0.37087878776821
H           -2.49703428827921       -2.73017139461599        0.89386078423725
H            0.55406622501117       -2.79312450422376       -1.57861152707335
H            2.72380489254451       -3.06955227723828       -0.70699512777311
H            4.09398955804938       -2.08762014656676       -0.30103482880587
H            0.86568868221400        2.78815439198824        0.86639857565250
H            2.58467216556795        2.67086221561237        1.06824053424313
H           -0.02309798075118        2.96698617572808       -1.04460444227640
H           -2.63157802260843        3.42449096499547       -1.35826461189654
