25
 energy: -43.474416319221 gnorm: 0.000698744908 xtb: 6.6.1 (8d0f1dd)
N           -3.78068436299985        1.94294358373160       -0.00094514059739
C           -2.67994171519250        1.62234629504140        0.00156410602572
C           -1.28622580792033        1.31950792806382        0.00253010404782
C           -0.49760406950101        2.48474472254650       -0.00301288855185
C            0.84719678532492        2.76260954095381        0.01065554685289
C            2.01156819821884        1.98247877026493        0.02611713201013
C            2.29312949872748        0.64049707478142        0.01385193561254
C            3.65600544598104        0.20611590943264        0.01156800786869
N            3.77530356243440       -1.09961281604232       -0.01843924514248
C            2.52224616769292       -1.60465236666631       -0.03054052249430
C            1.53556653467804       -0.62456155212576       -0.01185402242774
C            0.16119488225882       -0.92830703547895       -0.00477487831810
C           -0.34809509734090       -2.20871647467086       -0.00559812258672
C           -1.76337935201826       -2.09650809869001        0.01149079977470
N           -2.65277891157381       -3.08990097645045        0.02177973223749
N           -2.15941708718427       -0.81618624612898        0.01899437179909
C           -1.05668495703547       -0.05390993079451        0.00860127245473
H           -1.11783808609286        3.37743853713218       -0.01477316686847
H            1.05980471431088        3.82612396117669        0.01034929557891
H            2.91424670594244        2.58804634690952        0.04493366215321
H            4.52038280591757        0.84537054605374        0.02624739426918
H            2.38971489415261       -2.66973911473445       -0.05402294130626
H            0.19318417777751       -3.13238729280735       -0.01408897032361
H           -3.63093428867724       -2.85683801176876        0.03537430178239
H           -2.36049527378030       -4.05057056272977        0.01240837984958
