32
 energy: -58.343770496420 gnorm: 0.000915232507 xtb: 6.6.1 (8d0f1dd)
N           -4.83707973568514        0.47701023413219        0.89540640731045
C           -3.74006046654370        0.75657432005110        0.69234488386961
C           -2.41104776860290        1.14568981984065        0.51709731515526
C           -1.94102763983903        2.48888101064117        0.70959321134123
C           -0.60558737174654        2.52587272339018        0.45718905485499
C           -0.14147830355035        1.19461892706788        0.18377443599451
C            1.16551759774430        0.87544421127719       -0.10253967743036
C            2.16047729942507        1.82042960368421       -0.66030671241832
N            1.87529502951525        3.02344368982066       -1.17009809250772
N            3.36532108070958        1.30210701290108       -0.71248140661470
C            3.26162949704279        0.04621527471480       -0.17897489522225
N            4.37902093446037       -0.69942599002049       -0.01227163020387
C            1.94246933717596       -0.29747343153688        0.13952943529513
C            1.52474794116472       -1.46895438571710        0.87642255563046
N            2.39568389646910       -1.93698566149064        1.81706154748473
N            0.46920423249537       -2.16835098645507        0.66927678811277
C           -0.54942273105256       -2.06139532210684       -0.19504802608983
N           -0.76989957951430       -3.18263289167434       -0.93248097988723
C           -1.46571990029215       -1.00769711474574       -0.27106171613452
C           -2.65586512642216       -1.28469159894799       -0.96642019389166
N           -3.58261480077244       -1.55723481925688       -1.59334598342290
C           -1.32893793318097        0.32514488931020        0.22840195316127
H           -2.56538223827660        3.30784440120376        1.01778077531731
H            0.03658989701749        3.37352047530051        0.61312976995261
H            0.91592169514732        3.30649223891794       -1.27360543246678
H            2.59656648703912        3.49662556728355       -1.68709267871223
H            5.20152675952115       -0.36308141961976       -0.48472773857087
H            4.27405907660077       -1.69433974339844        0.09377219964653
H            3.06060374403752       -1.29042918247518        2.20723513842277
H            2.04095826454248       -2.65262176209700        2.43146835126525
H           -0.24878326867353       -4.00975883478461       -0.69758400496154
H           -1.65945675805649       -3.29132555051039       -1.39258459828060
