25
 energy: -47.508468527102 gnorm: 0.000373594865 xtb: 6.6.1 (8d0f1dd)
N           -5.25502800276293        0.04671219627454       -0.12596937374766
C           -4.11430037313839        0.18690113624182       -0.14386737163514
C           -2.72375574324832        0.32197641233750       -0.15893222072489
C           -1.99024933192365        1.44621150623744       -0.57173637512464
C           -0.62236955157064        1.22372262627845       -0.41746016894038
C            0.31675698811300        2.19115578801260       -0.80244712107425
N            1.55127616547384        2.36674020410864       -0.45630991343167
C            2.38730914570275        1.59177820085030        0.22231235486514
N            3.11884145583386        2.20187685401036        1.17447360291983
N            2.75436037477388        0.35683282482377       -0.08052060230975
C            2.08364039473034       -0.73898473014569       -0.16020462610327
N            2.64988222705894       -1.93578534063191       -0.35542447620513
C            1.69784575433275       -2.81073937566417       -0.04822290959710
N            0.50412352664902       -2.33568522042113        0.28999061364506
C            0.61608356795882       -0.98739692067419        0.15598054357245
C           -0.46800328738597       -0.15452794299069        0.07164376577950
C           -1.81163601125481       -0.68398966805027        0.21122874442862
N           -2.07011941869591       -1.92332161390558        0.62108951505368
H           -2.42794978570447        2.35780791920071       -0.93726119645504
H           -0.07631601333982        3.00246396571472       -1.41087244347025
H            3.90832267537382        1.71752672993738        1.56551061884652
H            3.02370787807530        3.19363309961059        1.30677831199551
H            1.88642522346528       -3.86995083517785       -0.06957121697736
H           -3.01178196177595       -2.27793910852585        0.60197718065573
H           -1.25155548073930       -2.53604620825325        0.67794576533086
