29
 energy: -54.395977008784 gnorm: 0.000628522021 xtb: 6.6.1 (8d0f1dd)
N           -3.63380371929912       -2.63984391243183       -0.24975804891368
C           -2.66675121165701       -2.01738726046613       -0.21397119456936
C           -1.43793899029312       -1.33230081943910       -0.16468114474783
C           -0.28818827817674       -2.16284269228368        0.06487889225518
N           -0.51578076318480       -3.33112505120657        0.70641269350114
N            0.91588582008610       -2.00248282051512       -0.39708316521614
C            1.79712072549035       -1.07169007632847       -0.64138117754639
N            2.82255743099718       -1.45432945133034       -1.44748416534137
C            1.89169670767637        0.19202047131899       -0.01210261637441
C            3.08082647400652        0.88571126568760        0.25967138578171
N            4.37438124762776        0.46109285134248        0.07667047472944
N            2.84744348503833        2.12769077339137        0.75570438170463
C            1.54119942264171        2.28658306173438        0.76901275758829
C            0.83904299484145        1.13013782243400        0.32867789336492
C           -0.52961696486290        1.14076022187128        0.10696321913594
N           -1.22322927308941        2.27968073093180        0.17471023430193
C           -2.48664662408490        1.94472770168261       -0.14363762548851
N           -3.46162536357552        2.85008311931434       -0.21772726437245
N           -2.70926046856605        0.63942466781737       -0.38213167803132
C           -1.52083186428807        0.05402549702251       -0.22175785905355
H           -1.46007075441365       -3.61903691993510        0.90165506767672
H            0.22972198525444       -4.00233815565856        0.77344974040904
H            3.43320230443517       -0.74300076028617       -1.81204682917003
H            2.70897036135124       -2.30460977634612       -1.97367328121711
H            4.53649632957641       -0.52892527018185        0.18642948623268
H            5.04089329374584        1.04766866852159        0.55779463579737
H            1.08626001146279        3.19920128826944        1.10147380713058
H           -4.38605286804574        2.55229535327384       -0.47054424875671
H           -3.25529510349860        3.81199605779613       -0.01980600461208
