29
 energy: -51.158110528275 gnorm: 0.000521189252 xtb: 6.6.1 (8d0f1dd)
N            4.71662423359304        1.03029788697314       -0.30608483449298
C            3.75911328854760        0.40148018714243       -0.19700254521975
C            2.56912729172352       -0.31676387213927       -0.08120858022689
C            2.43441595243426       -1.66784123731773        0.14854880168392
C            1.05598850176883       -1.99012643315870        0.20073198951017
C            0.61025381696022       -3.28999442803112        0.46194997816400
N            0.31833846809482       -4.37303981197362        0.71362550364546
C            0.29151786951310       -0.82519693164223        0.02843108632250
C           -1.09291619427738       -0.81810717015356       -0.15747158460482
C           -1.81938493574005       -1.96040163397848       -0.56855150615743
N           -3.11381092212890       -1.71591255335973       -0.69152959831024
C           -3.31511805120549       -0.46245248727547       -0.27446226845728
C           -2.11825108369778        0.20014323867331        0.03419949280011
C           -2.10278803219751        1.53526024611783        0.49755398485078
N           -3.23234054651471        1.93706508117514        1.12318005755965
C           -1.15934602131777        2.55363798164536        0.28166232866353
C            0.13186235527536        2.62025479692060       -0.21371086900566
N            0.58058163292423        3.86809485700067       -0.51778578315098
C            1.15121158914267        1.62704406616256       -0.33187074157385
C            1.25405190485565        0.28735683679980       -0.12095511260986
H            3.23531342999320       -2.37455010615433        0.27297895224013
H           -1.41391122711993       -2.91364823072800       -0.84711587529503
H           -4.30774334681798       -0.04817874998260       -0.30968456412341
H           -3.37826802509382        2.90038035616965        1.36962511643773
H           -3.97254030567776        1.27819118241516        1.28618655441913
H           -1.56657188847928        3.53682130670588        0.50686481661175
H           -0.01712403919312        4.66887517191924       -0.41958155176897
H            1.53641849703137        4.01922918460506       -0.78640660948049
H            2.11506681739828        2.08035661467452       -0.55672620793147
