29
 energy: -50.378264391524 gnorm: 0.000716591076 xtb: 6.6.1 (8d0f1dd)
N            4.58569580025533        2.01931702306438       -0.03973504965015
C            3.59874189679822        1.42493588412744       -0.01583161173611
C            2.41789880639405        0.69189355784215        0.00851061747914
C            2.33167002083756       -0.73028346686372        0.17522789437252
N            3.41447204618796       -1.51461246377264        0.37688536194975
C            0.99461621945811       -1.12923679460722        0.10438476256592
C            0.58301356825307       -2.44131136139595        0.46311959508240
N           -0.41150974769330       -3.15000731629862        0.09920180099118
C           -1.50941175524533       -2.97097443885494       -0.63330230637645
C           -2.43372292015024       -1.97530679516366       -0.62343554946340
C           -2.34045407813440       -0.62490743240658       -0.18597417574019
C           -3.43945570196224        0.19417974672031       -0.11524156223482
C           -2.95994865892345        1.52382900482231        0.09345371067714
N           -3.72890178533256        2.62771443376860        0.21020627561497
N           -1.64306684973353        1.57361694523148        0.11098944574622
C           -1.17534175919554        0.28121422421765       -0.03131820590656
C            0.18118178961206        0.06580859613289       -0.05327302169491
C            1.12286402728849        1.19065184805021       -0.08004715843047
N            0.74541867185069        2.45963002144248       -0.22941345043144
H            3.32325698431474       -2.51367659859827        0.34489092999874
H            4.32916772727606       -1.11354736127315        0.26267704005852
H            1.26342660210340       -2.96819392146408        1.13515322461594
H           -1.76203660706147       -3.87210565856997       -1.18836783118150
H           -3.38780548707504       -2.21065736074436       -1.07984689317468
H           -4.47065115695656       -0.09040566575315       -0.20027574936131
H           -4.71234937804707        2.51845317421140        0.38225003637183
H           -3.29031293568598        3.48404465774731        0.50166546886984
H            1.42811349557768        3.19727749650069       -0.19923910103353
H           -0.26750078451038        2.59932591358740       -0.14321261667808
