30
 energy: -54.898354239407 gnorm: 0.000904744057 xtb: 6.6.1 (8d0f1dd)
N            4.55758205396401       -1.16733764650074       -0.88453848545705
C            3.44887829120688       -1.15426304031749       -0.57903370270500
C            2.11386745150833       -1.24225560961322       -0.18894206211009
C            1.51506034905051       -2.40048333572610        0.31678743062077
N            0.24874215553202       -2.22617500655892        0.65893695445691
C           -0.09537000792654       -0.93622213506831        0.35598911255782
C           -1.42885153946408       -0.59404177996075        0.32878291029442
C           -2.45603818054248       -1.59771563672806        0.54233577956076
N           -2.20692999622255       -2.80179174852843        1.05478124000914
C           -3.68512292083177       -1.09374808161476        0.11680771742398
C           -3.50582854563199        0.19934052224287       -0.36321362531073
N           -4.49652022586713        0.99234076020114       -0.82901312389252
C           -2.13369301074817        0.58670420471555       -0.19027214055306
C           -1.68939962939839        1.85716876979883       -0.43746593398708
N           -0.63908812700963        2.49296481731934        0.04061157171992
C            0.58670899932044        2.21712430249056        0.30158246406631
N            1.25721687187104        3.05949866334881        1.11472878733417
C            1.40286821770939        1.12620352494735       -0.25023016535066
C            2.65514507365465        1.56535081718524       -0.70180451600439
N            3.62478737180573        2.05242235502021       -1.08886079754441
C            1.13132175431539       -0.21857181256185       -0.10207397615075
H            1.98758615250503       -3.35962795690748        0.44088819607909
H           -1.19914555199386       -3.01667424725243        1.10718671421649
H           -2.92006879046032       -3.51083419497495        1.03958600829778
H           -4.61684266069374       -1.62862548890255        0.13638458686828
H           -4.27417371629750        1.83885418558597       -1.32160569125741
H           -5.39552230493377        0.57886500368360       -1.00410344950308
H           -2.36374887641475        2.53636313480635       -0.95492398877556
H            0.78533412841449        3.87953519936584        1.45679452503965
H            2.26186886148988        3.02106012179881        1.15843832586805
