31
 energy: -49.795762735368 gnorm: 0.000805904712 xtb: 6.6.1 (8d0f1dd)
N           -4.18511183217781        2.86143575270022       -0.24881099511714
C           -3.27053434179608        2.17115558862962       -0.13523792956763
C           -2.19946492021691        1.28965416972469       -0.00381260831564
C           -0.83995997228908        1.60272517480710        0.00179507076488
C           -0.08972494005197        0.42122629195194        0.05898599427193
C            1.31376484316127        0.48163797567283        0.09621354989335
C            1.99947096677306        1.63924980089710        0.42396173369567
C            3.37063236638436        1.47271192133658        0.13951993220935
N            4.32836560761394        2.40341893021968        0.33224210936567
C            3.55589600008810        0.19421335531990       -0.40467032440567
C            2.34004256786729       -0.48553786880748       -0.40181349863129
C            2.26170127713808       -1.79657788647793       -0.85214029517560
C            1.34669675341453       -2.82366461220538       -0.67944753397391
C            0.13321516711879       -2.95055731793034       -0.03176829051361
C           -0.85940316750385       -2.06791974671783        0.42031125072987
N           -1.86491359311623       -2.66309559776972        1.11360414909725
C           -1.04972108972217       -0.68722397018136        0.15066395449106
C           -2.33064411801984       -0.11348069303376        0.11996408248807
N           -3.57111908572157       -0.76587376863472        0.17440789535367
H           -0.44522033185384        2.59384382244929       -0.10663281671139
H            1.57452202122283        2.53159418889945        0.84161137886656
H            4.10926385825358        3.25217624936169        0.82169592501521
H            5.29375528586837        2.16920342123065        0.18613092274032
H            4.49736756611648       -0.21716306126667       -0.71947131947756
H            3.17980323701289       -2.11938099646048       -1.33460921950316
H            1.71496884942588       -3.77511434894507       -1.05247152175104
H           -0.15253428040216       -3.98803960033767        0.12464263885486
H           -2.63549811896193       -2.11049141567837        1.44968356636354
H           -1.84808375447634       -3.65152891226676        1.29089743416516
H           -3.62759302882929       -1.58229636304889       -0.42149059082911
H           -4.32956734372048       -0.12455553793960       -0.02546260739491
