26
 energy: -47.996790432742 gnorm: 0.000741521930 xtb: 6.6.1 (8d0f1dd)
N           -5.20968112911091       -1.24347021265374       -0.32385216628252
C           -4.11128646921201       -0.93253972846347       -0.20464625526258
C           -2.76419849100026       -0.57673493496649       -0.05286343990319
C           -2.23398795944597        0.70581278193782       -0.07851717051301
C           -0.83481397654824        0.61900985822970        0.04446559869358
C           -0.07014169296680        1.77668266685817        0.11492902276069
N           -0.66119515127894        2.96745299850554        0.28362531297982
C            0.32024647330733        3.86262937476195        0.19258394251380
N            1.52558590525838        3.38450956430624       -0.09876849861192
C            1.37514450320207        2.05121113863376       -0.14469671272460
C            2.43668176161462        1.26958377961910       -0.56303870579067
C            2.67450955331489       -0.09427180431689       -0.55757900744406
C            2.02314901642909       -1.20621379190906       -0.02820624843580
C            2.88075571522792       -2.33908751008882       -0.01415038453231
N            3.58011790468462       -3.24939922571159       -0.00432234988735
C            0.71523468330536       -1.48468787241260        0.47211276510296
N            0.59579923188545       -2.63541587837904        1.16187908955024
C           -0.50118373572657       -0.80469894890530        0.20379543217760
C           -1.70927562207606       -1.49353495804524        0.16329425942231
H           -2.77032335414720        1.62608284644267       -0.19865323071500
H            0.14371789003768        4.91279785318608        0.33856353540630
H            3.26433059523124        1.87245207326699       -0.91932073823139
H            3.65116305187177       -0.35320380761483       -0.95812283882288
H           -0.30186456688637       -2.92423011929986        1.50986061371502
H            1.38471164265192       -3.25006594878688        1.28520781058200
H           -1.84934580012297       -2.55937376839408        0.19340683395221
