31
 energy: -49.798042837180 gnorm: 0.000781900097 xtb: 6.6.1 (8d0f1dd)
N           -4.65310872737916        1.37124431597283        0.49445078256241
C           -3.65961394709874        0.81619587644441        0.30690156784240
C           -2.49329938593547        0.09972689967161        0.07368038063829
C           -2.45852027540707       -1.22450744988070       -0.41801280718620
N           -3.53990153601009       -1.98110268590062       -0.69802654570743
C           -1.11467552153031       -1.61922330281429       -0.51928933638227
C           -0.28001890164917       -0.56902528403439       -0.14712351657579
C            1.10071434707801       -0.72690215979833        0.04578407605671
C            1.68304167391261       -1.99326197832524        0.29133906913710
N            1.02341991175930       -3.18491212756178        0.55431627304421
C            3.07470228482733       -1.86573903265349        0.28168774828095
C            3.39767140323223       -0.55727015697982       -0.03173930252237
C            2.22324768100874        0.21152327556981       -0.13140700371918
C            2.28112208913547        1.58343639377094       -0.41709989168110
N            3.40583454657434        2.01436018357831       -1.05437260487463
C            1.43251081615694        2.63840226312994        0.00321984348078
C            0.17371842746349        2.72919466579984        0.53410695256272
C           -0.92640243445879        1.86759003454599        0.60930730562322
C           -1.16077805089844        0.57818709926110        0.18927885607436
H           -3.42430856252607       -2.85145878942156       -1.18619035544401
H           -4.44994725006609       -1.55280675530344       -0.69194539121016
H           -0.79112754277998       -2.56517246469333       -0.90871295794218
H            1.59677536067212       -3.84563465746436        1.06090117445523
H            0.10774918886379       -3.06490643521583        0.96708361821727
H            3.77212590938262       -2.65723615075564        0.49106727540428
H            4.40520371952619       -0.18087242555966       -0.06409744571862
H            4.10558769838244        1.35181729302132       -1.33265955839920
H            3.62668087226936        2.99364883377722       -1.09578266702462
H            1.93034076057337        3.60150071051292       -0.07743986309186
H           -0.06788760942018        3.73041621432364        0.87722411169592
H           -1.82660301485887        2.36127369658302        0.96527826320394
