33
 energy: -58.041973760770 gnorm: 0.000656949775 xtb: 6.6.1 (8d0f1dd)
N           -4.64798681561804        1.47952799210686        1.45322744547600
C           -3.62846592636348        1.31952462041756        0.95035141781826
C           -2.33943380940711        1.18591451914583        0.37789475638919
C           -1.67628619817927        2.41024156104590        0.19909369138103
C           -0.50365174676705        2.79043732544126       -0.39613267637301
C            0.70782628492053        2.14524742882558       -0.74429809046134
N            1.58273095857517        2.95048906749059       -1.40737048306017
C            1.21700339786936        0.89825343325416       -0.33104421389109
C            2.59612589758159        0.67952145599626       -0.15202986115947
N            3.63206977889114        1.59718213774734       -0.23967883284756
C            2.80660957968250       -0.67366965384916        0.19624062872977
C            4.02943141710652       -1.22827635909928        0.55968483126281
N            5.04213471091166       -1.67271423045628        0.88178372613466
C            1.56939650386346       -1.34215956898052        0.16461332493856
N            1.42104083852762       -2.67558525448037        0.44348705386810
C            0.55176556357981       -0.40522034263521       -0.14576764552927
C           -0.76697932140899       -0.80864808414269       -0.36669945277879
C           -1.16113259506541       -2.10811810228099       -0.68082391485326
C           -2.56291013695582       -2.13940945059571       -0.59788547174489
N           -3.38086646019132       -3.17067615040233       -0.85504136689515
N           -3.07106361047457       -0.95979553573036       -0.17654519564633
C           -2.05513462973511       -0.10843300993458       -0.07031586811462
H           -2.29498567393723        3.25002512305102        0.50474080578257
H           -0.45125071954907        3.85873291807835       -0.58829240234534
H            2.41119139289885        2.54646203776443       -1.81008432834396
H            1.26597649308030        3.83729583310196       -1.75966201635048
H            4.49554189217341        1.24452521585621        0.15284692147987
H            3.41206348545815        2.52746496174720        0.08853753425338
H            2.20160025286586       -3.09404548117480        0.92856360752503
H            0.51104674292075       -2.95170199462443        0.78323726520365
H           -0.54353664910311       -2.90104518219650       -1.05199638497446
H           -3.03021800099215       -4.01160133092847       -1.27638112533060
H           -4.37143655985808       -3.00342147435979       -0.82144708114223
