27
 energy: -47.714973504369 gnorm: 0.000823086623 xtb: 6.6.1 (8d0f1dd)
N            4.59582823591994        0.44748905090269        0.94358773161857
C            3.51439229942274        0.67697190664432        0.62954927369538
C            2.19949945844440        1.03306829734068        0.31465042768467
C            1.75698010783683        2.40568954071065        0.20481753571606
C            0.44230764052753        2.40890308159305       -0.10393226103938
C           -0.05656682321841        1.04925761148944       -0.11055067537583
C           -1.38732349758360        0.76552222348763       -0.28050121436474
C           -2.32990063848177        1.76294936747888       -0.77157877684666
C           -3.58656374104233        1.28387042634843       -0.67364097796391
C           -3.53116205304942       -0.01733401551674       -0.04751570316859
N           -4.62432329956532       -0.76059671236298        0.22178923895592
C           -2.19919486588238       -0.36514986625810        0.14582881546187
C           -1.78447986868349       -1.51022866940342        0.88768002856566
N           -0.76035644207329       -2.24866108631610        0.73353150013078
C            0.34211468364361       -2.22134748881889        0.00365636933641
C            1.26597056359126       -1.21361003024990       -0.13496890148342
C            2.50449376570052       -1.60598302796907       -0.69352220773480
N            3.47017065994055       -1.95752315832966       -1.20478217037710
C            1.12011006363406        0.19087232183655        0.12839290141275
H            2.39772411997299        3.25552885841087        0.35153674689162
H           -0.17232762844997        3.28019944295808       -0.21839874311613
H           -2.04204397138941        2.70071716474265       -1.20446984278742
H           -4.49552212025155        1.77163698368990       -0.97476743843044
H           -4.53774447328954       -1.61396705441044        0.74497324560552
H           -5.53697510063076       -0.35569300972107        0.11439897548435
H           -2.47153418506357       -1.86074521271616        1.65843287989705
H            0.61872437101979       -3.20190414766173       -0.37466272846760
