33
 energy: -58.069145417994 gnorm: 0.000820258336 xtb: 6.6.1 (8d0f1dd)
N            5.07936652996326        2.53741309283875        0.65652010375276
C            4.09036101674406        1.98132526751293        0.46067356004583
C            2.92516570945400        1.25428755930250        0.22745463305914
C            1.60818487719328        1.69520562065576        0.34800309043471
C            0.73098494125696        0.63051908854858        0.08599492710765
C           -0.65786715396121        0.83102412041564       -0.04522184180327
C           -1.21606860835231        2.08799293843452       -0.21276269077527
C           -2.62154902769280        1.99515021055230       -0.28581930434368
N           -3.47315715517713        3.01539038140113       -0.48453931696028
C           -2.98314746216083        0.64312139113492       -0.12881187927701
C           -4.28252388530411        0.15666497999637       -0.12092311514960
N           -5.37023557273608       -0.22670028974687       -0.11196379121599
C           -1.79831395924272       -0.12921950128391        0.03160273925913
C           -1.87320084262754       -1.44729186176945        0.39088053913895
C           -0.85899630016971       -2.43000177812273        0.56582925213824
N           -1.15602843060282       -3.45459559401084        1.40123198863531
N            0.24556075875601       -2.56559432056035       -0.11071698843980
C            1.16520080327452       -1.81678842429081       -0.65642824431559
N            1.94629318523970       -2.45133974232221       -1.56790692125176
C            1.56613460984265       -0.52110430520169       -0.23523330560997
C            2.90145294589631       -0.10682760187051       -0.17923036182671
N            4.03374561069674       -0.85020730423570       -0.46301026500917
H            1.32451108010857        2.68689615309210        0.64294471689942
H           -0.67447156002192        3.00795051609790       -0.31976489049643
H           -4.46205191553183        2.84312789787413       -0.52791011692512
H           -3.13351451912135        3.95586917490482       -0.57119284883295
H           -2.87552467938289       -1.80609375612547        0.60254052412409
H           -2.06062251756587       -3.51716872718372        1.83117380466111
H           -0.51725465101423       -4.22605127843358        1.47962520444866
H            1.63776628585584       -3.34212675370106       -1.91838912683331
H            2.58774959908545       -1.90754111474749       -2.11835715023438
H            3.95975647252828       -1.84018958601411       -0.27772346657248
H            4.88292096276918       -0.44074960834207       -0.09779060393196
