27
 energy: -46.927364642115 gnorm: 0.000500871345 xtb: 6.6.1 (8d0f1dd)
N           -5.20036989764920       -0.01407973764292       -0.10798482508838
C           -4.05945061678214       -0.12975680476651       -0.19798961104168
C           -2.66977622280849       -0.23781323507384       -0.26845709511815
C           -1.93144013379640       -1.29377908671391       -0.83114304276888
C           -0.57394368747946       -1.08669112616912       -0.60017798089939
C            0.37190027894932       -2.05363094268719       -0.96833395900153
N            1.51768889425468       -2.34774663553906       -0.43903538912090
C            2.26514676973356       -1.65705749128093        0.41326261425268
N            2.82058067567475       -2.35842956628467        1.42751035733418
N            2.71477926426442       -0.43262431615210        0.23132166892641
C            2.14822176898443        0.68365113945362       -0.10983236226182
C            2.85632609402967        1.85652916170672       -0.38635514237390
C            1.97013558245574        2.92069418119018       -0.31057743565395
C            0.67856945474344        2.47264427892157       -0.00799724177688
C            0.67761056813848        1.07987640560808        0.03707771670435
C           -0.43329712100662        0.24537018620015        0.02296711489767
C           -1.76788145624972        0.70886508034895        0.24968919963974
N           -2.13228444443718        1.87645893420053        0.85183724632552
H           -2.35737168823190       -2.16108673767489       -1.30107314219953
H            0.03927078314071       -2.78205845593630       -1.70441387958350
H            2.70219634577880       -3.35627129737863        1.44087030637073
H            3.58830471535315       -1.94879198145428        1.93080749523453
H            3.91223273088625        1.90758186419186       -0.56317465557877
H            2.22992579003415        3.95325358040244       -0.47055083320816
H           -0.18528814347058        3.10782482677530        0.01775251056514
H           -3.10692493621802        1.96303435978102        1.09597571386795
H           -1.47531817829345        2.29571328287099        1.48924525655604
