28
 energy: -51.458288790440 gnorm: 0.000822260811 xtb: 6.6.1 (8d0f1dd)
N           -4.65119039906674        0.78287859629331        1.18681075948779
C           -3.67841539236648        0.29070408179666        0.82183364716444
C           -2.49359395480822       -0.30876488057356        0.39215703556121
C           -2.30342294105307       -1.67471137038132        0.12327782866529
C           -1.00898384688057       -1.90135693795906       -0.33489282734105
C           -0.56362754591255       -3.17583442171501       -0.68596430425551
N           -0.26268605701530       -4.24688225164957       -0.98242562698938
C           -0.27869782687604       -0.66602215952490       -0.28935078079026
C            1.08810116060400       -0.53068509846241       -0.31671485303125
C            1.96122770553231       -1.63621784796712       -0.61340523209233
C            3.24261983188972       -1.31141698461803       -0.30208294492905
C            3.26236139545196        0.00900792509541        0.24193099545729
N            4.39959797557341        0.63430913510049        0.62518588564405
C            1.96406581982477        0.54376864079704        0.19380728644070
C            1.69206160983939        1.83350286994073        0.67901037313454
N            0.77951008844901        2.69426511197994        0.37463827514515
C           -0.31675799227065        2.52820469304449       -0.37209714247571
N           -0.57510932511255        3.50212582556602       -1.26853573059749
N           -1.26684531686636        1.65416966351042       -0.15865194696579
C           -1.30769092242475        0.37425795185946        0.05542095738189
H           -3.05256304805400       -2.43662653650622        0.25007095934349
H            1.63002765251231       -2.57018396802289       -1.02131474266865
H            4.11149567865210       -1.93123238889368       -0.42631347314298
H            4.34606813163053        1.49043527640331        1.15033435200326
H            5.22809951434368        0.07656064542351        0.74220412353649
H            2.44119613910218        2.25166714290054        1.35147691911535
H            0.00803735716767        4.32035547245243       -1.27567802678928
H           -1.49402459106337        3.54924159751027       -1.67410204531093
