30
 energy: -50.879649535931 gnorm: 0.000968093603 xtb: 6.6.1 (8d0f1dd)
N            4.59073719497837       -0.83987954956015       -0.57299882031026
C            3.59759954969973       -0.34933057483037       -0.26811531688005
C            2.38930545236505        0.30389126261571        0.08308230817142
C            2.60830876306427        1.64428464870713        0.41991279558533
C            1.81089660503493        2.66199007995233        0.89792906779432
C            0.43021200310045        2.85071343405412        0.96739626022896
C           -0.66176028186007        2.19997514167516        0.43847259574516
C           -1.90172463392543        2.86460981767482        0.37965487875773
C           -2.79976064397348        2.13226283230995       -0.37267702929899
C           -2.20423693318674        0.91576778913424       -0.73712960451920
N           -2.74632188997168        0.06336005729280       -1.64923645987285
C           -0.89152985926827        0.86050674502407       -0.18007468641328
C           -0.18714529955241       -0.31525474929648        0.02627650760594
C           -0.79245980667465       -1.59956661868560        0.06341216685623
C           -2.13728217445835       -1.92734917684913        0.18465341796795
N           -3.22995204741435       -2.27883614644489        0.29641956158507
C            0.21839296307198       -2.58655369772027        0.18548192203288
N            0.00466529631934       -3.90803784355127        0.28223437130000
C            1.46275588199006       -1.93761669827136        0.17541951656503
C            1.27675278734024       -0.56137611655822        0.14172568180432
H            3.66047492766131        1.91099674584441        0.36173350550038
H            2.37521310960087        3.52052291160469        1.24479603629851
H            0.15894739384586        3.79942306663852        1.42196109750451
H           -2.08364023734070        3.83947378830010        0.79379504464058
H           -3.79301567016585        2.43529110247150       -0.64937106799629
H           -2.32207433202205       -0.83808630797758       -1.78441543123121
H           -3.74561808211918        0.08898001128002       -1.76250520809560
H           -0.93402150748685       -4.25785672645978        0.37496019338284
H            0.77460454582114       -4.53107245525000        0.45085529016551
H            2.41190524632657       -2.43595661492475        0.23725781822520
