29
 energy: -51.167605605761 gnorm: 0.000858387120 xtb: 6.6.1 (8d0f1dd)
N           -3.65135248226806       -3.26451024495345        0.03192871660385
C           -2.84023235580783       -2.45217934696049        0.09789646560368
C           -1.86491215882566       -1.43928797630168        0.17380618370395
C           -0.71487597784810       -1.77750030081443        0.90983976164102
N            0.49780396265999       -1.39689016986439        0.71303323119578
C            1.17703741669250       -0.41988322995040        0.19845251013219
C            2.51614458336611       -0.53493839724915       -0.20570539602760
C            3.24674745459407       -1.69832773169359       -0.42591136872110
N            3.90152077130035       -2.62236046920548       -0.63186051897649
C            3.05439145478930        0.78263466480686       -0.30863900501308
N            4.31689842497710        1.05545498135975       -0.66044368953974
C            2.04920279257127        1.71444891529437       -0.00244484728565
C            0.85248489291845        1.04444143655367        0.21585669081338
C           -0.41328101063396        1.62291199071764        0.29603438486728
C           -0.58954383714332        3.01372865057914        0.49372925401485
C           -1.91781132009152        3.33326448336593        0.33297705367585
C           -2.60550090895489        2.17600776185460       -0.05330061944332
C           -1.72951394029616        1.08674710456163       -0.05541464580282
C           -2.19983359107166       -0.20475384310645       -0.43413588219358
N           -3.22628129059024       -0.22901023764060       -1.31037033157349
H           -0.80941934175607       -2.60088735869331        1.61448472912625
H            4.65515672653945        2.00132044184123       -0.66769148967268
H            4.94729696784530        0.30447223395927       -0.88587081744500
H            2.18404727005432        2.77867379716265       -0.02556132888724
H            0.19273812573453        3.68987925945143        0.78052771253132
H           -2.36357086765760        4.30004337520999        0.47925189528168
H           -3.66741166587550        2.13318196305304       -0.22200366439476
H           -3.73947000600183       -1.08287035288364       -1.46182126059213
H           -3.61230303531931        0.63429231535243       -1.65033913122384
