33
 energy: -58.056492368768 gnorm: 0.000441422043 xtb: 6.6.1 (8d0f1dd)
N            4.60702998419406       -2.11596221632109       -0.26166759586113
C            3.66341700192479       -1.46014061371842       -0.19121067655799
C            2.55597391304867       -0.62266811790414       -0.08446049728232
C            1.21427906908913       -0.98121631174308       -0.24500697159145
C            0.85983140061406       -2.26050600310014       -0.73491142779298
C           -0.32756427901884       -2.93004540344675       -0.63459893820599
N           -1.33440508638972       -2.71915975394413        0.19767999215461
C           -2.00005149922958       -1.69487893569508        0.59585784835015
N           -2.88496598772001       -1.90941965583176        1.61726770338343
C           -2.05343837402381       -0.39998424384860       -0.04227334691902
C           -3.21393780288482        0.36004293957813       -0.19354047412481
N           -4.48756671455261       -0.02536839334795        0.11008770606436
C           -2.87131791056933        1.64407337977846       -0.70229356941244
C           -1.50851929112429        1.73294350272624       -0.77408736725587
N           -0.81710489068539        2.70866957774533       -1.42228412026520
C           -0.92806691149067        0.45199014719488       -0.32693982478281
C            0.41864015109856        0.24456968090375       -0.09420018349722
C            1.35646055430220        1.29267087836606        0.23332104318195
C            1.07834715320653        2.57709055219151        0.68740458057615
N            0.91844936412778        3.65057946089121        1.07901431494551
C            2.64555574895306        0.75990541464596        0.27266501610571
N            3.78860872400463        1.41224768161298        0.56633193890671
H            1.66850807824401       -2.79034551261458       -1.22406004429694
H           -0.41122204319201       -3.87923270401959       -1.15711111310825
H           -3.22945581750933       -1.10615847968234        2.11545181472549
H           -2.75582500542695       -2.75739921946582        2.14599757289069
H           -5.22964711232814        0.51401531390621       -0.30493650940791
H           -4.65787578084048       -1.01467189642879        0.19550851841820
H           -3.57541220686736        2.40459030458319       -0.98221528224966
H            0.17120433690243        2.79439657016428       -1.25529230433129
H           -1.30502744656069        3.57585296241768       -1.57353461319411
H            3.74068664208939        2.34467711730714        0.94047324787984
H            4.63498477661561        0.88448263129973        0.69423141325445
