30
 energy: -54.906908452409 gnorm: 0.000999222279 xtb: 6.6.1 (8d0f1dd)
N            4.83184404798943        2.65362837880278        0.41766912688824
C            3.87207208072293        2.03232708417604        0.29512272140864
C            2.74427246742628        1.21960874535555        0.16190068144926
C            1.42120420231134        1.59632104753980        0.13312335040274
C            0.60848531681971        0.42981027656972        0.04636960263644
C           -0.76887976942867        0.54316226251140       -0.05949070896746
N           -1.28611103213229        1.76703982191647       -0.30608498500323
C           -2.60890895120804        1.65587281455993       -0.32108882183374
N           -3.41552643253304        2.68732065448779       -0.58672918353087
C           -3.03567507772438        0.31646471306465       -0.02673433976776
C           -4.36059114586171       -0.08889558271581        0.06595410694876
N           -5.47246871592417       -0.38192555719555        0.13505956973599
C           -1.87267509841832       -0.44023071292642        0.14252263056868
C           -1.89001634838388       -1.73660605893991        0.66412099035478
C           -0.87293567532645       -2.65653640871014        0.82732008791169
N            0.26211876336109       -2.78702472215433        0.19416063224546
C            1.17175390346557       -2.06003139768299       -0.36648214535882
N            2.00177708599973       -2.71124505270242       -1.22333211014068
C            1.51689183897358       -0.70523985931541       -0.03678688620524
C            2.81204964185002       -0.21358941118379        0.01375473140706
N            3.99182021239287       -0.90676314380242       -0.09210774285489
H            1.03026048803119        2.59134603591905        0.20754486688317
H           -4.41313596334556        2.56653426945166       -0.58532832240605
H           -3.01121526188818        3.58738729332747       -0.77597349398990
H           -2.85883682155931       -2.04979852781853        1.03686201699052
H           -1.09281537729566       -3.51094660207539        1.46375473677610
H            1.72961236620673       -3.62824089949770       -1.53593164614273
H            2.64013866691017       -2.17798930502402       -1.78703961986392
H            3.96096266211545       -1.88603726827364        0.14647245995562
H            4.80970340685538       -0.41639066946350        0.23807371260166
