28
 energy: -45.846415234310 gnorm: 0.000694046012 xtb: 6.6.1 (8d0f1dd)
N            1.76118732034320       -3.29978571523791       -1.15729852507736
C            1.33139645738292       -2.29511706040883       -0.34752793036839
C           -0.08504958464695       -2.23852325170786       -0.14578251785031
C           -0.92101702626255       -1.18075497987553        0.03634931627800
N           -2.25005269413092       -1.45952322531793        0.14281040871215
C           -2.88538221799675       -0.29653266387297        0.11830419824058
N           -4.23299801360290       -0.22216510722853        0.16965730881041
C           -2.00185397341171        0.81066408907643       -0.01721380045500
C           -0.71824695765716        0.30616456553145       -0.03273083244614
C            0.46015933385396        1.08006788086247       -0.07191565269702
C            0.47243051969250        2.46546467537186       -0.31543457864587
N           -0.53865003805262        3.22756927247888       -0.87118286886339
C            1.70024616245940        3.00633540713497        0.12634549855333
C            2.45635250806957        1.99849104557274        0.66927585048817
C            1.77658260567754        0.76411542565152        0.49879958803670
C            2.40457068359475       -0.42907194262565        0.77586029836894
N            2.27288198237143       -1.61913455675116        0.23358746050882
H            2.74958711927297       -3.46604630623796       -1.23231472425155
H            1.11855403137423       -3.99834759093842       -1.48299873618897
H           -0.59775792568536       -3.19004250439608       -0.22645653041698
H           -4.66407698914147        0.66468058566616        0.36256955699751
H           -4.72840888860245       -1.05766181287204        0.42977896739486
H           -2.30745004347942        1.83678877348802        0.01713116843987
H           -1.13392729041083        2.73176446654495       -1.51862222830926
H           -0.22638908696825        4.12261962212056       -1.21917419111483
H            1.97135650725763        4.04511883898900        0.05387154791598
H            3.44701469012027        2.09236881343750        1.07562596225799
H            3.30077816817885       -0.36403672865548        1.39213307438159
