26
 energy: -47.207964415011 gnorm: 0.000828490443 xtb: 6.6.1 (8d0f1dd)
N            5.03400992096076        0.49008926228410        0.58322457896774
C            3.96938855311103        0.07531375428485        0.45169089391200
C            2.68810888311358       -0.45483819126804        0.31049057316954
C            2.31885475645838       -1.81357676235867        0.63923237071908
C            1.01179750131261       -2.01149995761247        0.34537108609131
C            0.43415474864151       -0.75513815235319       -0.07441163397732
C           -0.90464870540481       -0.47884378717039       -0.15809445815983
C           -1.96521448969071       -1.51152458976153       -0.27573828485705
N           -1.76824927509136       -2.77741371115842       -0.65102600157170
N           -3.16590990099186       -1.02837853269575       -0.06855592258306
C           -2.99761307489772        0.30214894001669        0.20598444070463
N           -4.07405834811349        1.05033256304114        0.48053124321420
C           -1.66150154977532        0.72427560329918        0.08704633387115
C           -1.21565530397891        2.02941118502475        0.44665294724954
N           -0.21334028997848        2.68616606449708        0.00980253597200
C            0.72911018340096        2.31410643623611       -0.87170257906486
N            1.57387471628530        1.36425118616476       -0.81859332551729
C            1.56298839179867        0.20706616844612       -0.14326489699560
H            3.00259899883908       -2.53304850256754        1.05221203411087
H            0.46424529091157       -2.91288617611796        0.54515551398435
H           -2.58081756286139       -3.34102947151797       -0.83621381943730
H           -0.86737739893896       -3.07616461284134       -0.98035242947981
H           -3.98244497163640        2.01978159303678        0.72399530217482
H           -4.96019514169497        0.58879111111140        0.58269452515970
H           -1.84459284345287        2.57622028174676        1.14955134822117
H            0.88917403577204        3.04636687824111       -1.66188593737545
