33
 energy: -62.871469206205 gnorm: 0.000553699282 xtb: 6.6.1 (8d0f1dd)
N            5.04065078775230       -2.84151966723398        0.62360726837940
C            4.03573110544954       -2.31494465627139        0.43801417851812
C            2.85027618604060       -1.61009748519016        0.21670772071080
C            1.56538971958978       -2.08760958861918        0.18685986861094
C            0.67045428922221       -0.98520802000609        0.04000326283140
C           -0.69071362092052       -1.20357657995672       -0.00224004944363
N           -1.20309567104313       -2.42207204888370       -0.26624626386906
C           -2.51729156149563       -2.27201084801889       -0.40497138814996
N           -3.32143820519399       -3.28413483433016       -0.73093398387154
C           -2.95138298639710       -0.91770277191600       -0.16133637993902
C           -4.27322681675002       -0.49131496920912       -0.19725571936392
N           -5.38341390116308       -0.19161566740183       -0.24705388630147
C           -1.79755183037509       -0.21380719465206        0.16661980776006
N           -1.75820107522948        0.95241382302478        0.76256807728022
C           -0.96064295193506        1.95791679020124        0.84911883435171
N           -1.17969488129604        2.83098526519387        1.85696521265612
C            0.06490044442499        2.32792718700946       -0.11755580290545
C            0.01512153394227        3.66814073590683       -0.52365446303781
N           -0.02439118222895        4.77443404942934       -0.84249420958203
C            1.11557981156172        1.53997966295537       -0.56253379991173
N            2.01730894306348        2.12302676002522       -1.40062480103253
C            1.47825832290029        0.21609840390139       -0.11587212153069
C            2.80849048196089       -0.18359031332802       -0.01299578984568
N            3.94795644433863        0.56805100601614       -0.11375296547690
H            1.24050504560766       -3.10073998228522        0.31677478245451
H           -4.30649390067189       -3.12950419904998       -0.85883452720821
H           -2.92955094072320       -4.20218702043081       -0.84845998994347
H           -0.76010620935270        3.74455625375489        1.82553696297557
H           -1.99484190847706        2.69583948315346        2.43170041831285
H            2.67869061334838        1.54177493816290       -1.88479429710129
H            1.79646945794653        3.02161467072691       -1.79852460591249
H            3.86804362391755        1.55845411035434        0.05644099153376
H            4.78575116059030        0.13498529417007        0.24459346915299
