32
 energy: -59.145052474584 gnorm: 0.000386256489 xtb: 6.6.1 (8d0f1dd)
N           -4.06636740769024       -3.02304982207099       -0.95240024551232
C           -3.24413384202826       -2.29675082936665       -0.60566174965551
C           -2.23924679497047       -1.41998834984006       -0.16515829649514
C           -2.43328343466979       -0.07494047605818       -0.37670086165403
C           -1.76126412491208        1.08478109025892        0.02694628799934
C           -2.44203111356665        2.32203474517561        0.02855579537445
N           -3.76059471013656        2.54279569257216       -0.19610947340048
C           -1.54448818663667        3.35136928551917        0.42615115537571
C           -0.30970674789377        2.80550860790444        0.60075828670033
C           -0.36306871613396        1.39125112835288        0.37313550487045
C            0.78385743820745        0.63148586689606        0.29764589481590
C            2.11200537119694        1.13151551297264        0.15590412205423
C            2.60047960209474        2.43199195919438        0.23582748551206
N            3.11370478294332        3.46286625917966        0.28557788288459
C            2.96047988306737        0.07095783821038       -0.21821066295523
N            4.25999106538480        0.16853338893185       -0.51704538418782
C            2.20702860891280       -1.14224804705607       -0.22686615716499
C            2.74154639916235       -2.39752968482142       -0.50458171972813
N            3.22317877740126       -3.41371035814250       -0.74870360849411
C            0.89586748521528       -0.84798523613712        0.15947879208188
N            0.06612293931272       -1.76974573724599        0.56732148689363
C           -1.19031972112292       -2.02920422901323        0.63701495000219
N           -1.57080640900909       -3.01617859470231        1.47519932073548
H           -3.37520123023698        0.12703360305091       -0.88328054665343
H           -4.06038799825429        3.49524554228498       -0.31448552406631
H           -4.32042136103593        1.83509217164492       -0.64114369565922
H           -1.81691762989764        4.38253919449256        0.55528791330987
H            0.57643623373664        3.33538376332027        0.88936903272803
H            4.77490046005139       -0.64528684269599       -0.80672230840657
H            4.72484618648245        1.05884906613644       -0.45668258525377
H           -2.49778556054142       -3.40131723304946        1.40850708664169
H           -0.85766399944103       -3.54346351780646        1.95044294920797
