32
 energy: -58.349031973546 gnorm: 0.000814773017 xtb: 6.6.1 (8d0f1dd)
N            2.98037513351405        3.45076378969657        0.06092901097656
C            2.38483394843697        2.46722046637711        0.09239217939716
C            1.73936096997260        1.21575168725257        0.09724253141913
C            2.61762288416225        0.08771779021218       -0.09813375023358
N            3.73525089998077        0.31038280358169       -0.82281529125758
N            2.52073857596002       -1.06622411820925        0.47968905993644
C            1.57014389772170       -1.87448223271667        0.89486517767242
N            1.91794598992727       -2.70164115991553        1.90578611528846
C            0.34376119905597       -2.09349808603848        0.22920449551973
C           -0.21582211505868       -3.35777577685290        0.04418013505446
C           -1.35367148127563       -3.25509271274733       -0.75386583829302
C           -1.59330081314839       -1.91245519266630       -1.01773794755257
N           -2.51756229712108       -1.45862642796751       -1.91392937757738
C           -0.57034186735015       -1.12573913069616       -0.37695176434749
C           -0.68477063087105        0.22605701130987       -0.06766487320620
C           -1.87846700715769        0.97767270072400       -0.00462508332482
C           -3.21049284274611        0.60476873884924       -0.08631433076266
N           -4.34535485425115        0.39719790420999       -0.13232150500801
C           -1.51403173142324        2.29357143952266        0.41920822159532
N           -2.36112276013095        3.29923749661934        0.66207651619054
N           -0.19672025055551        2.43076334418489        0.54729735207859
C            0.36415378679500        1.24315402422253        0.26533782492219
H            3.97303544556610        1.24821309680409       -1.09848221027525
H            4.43823046080089       -0.40722707145879       -0.86017865589887
H            1.30804456221321       -3.45657548406885        2.16101223031314
H            2.86298943829538       -2.69019542629590        2.24742819958969
H            0.21090497738881       -4.28471838702416        0.38577685998341
H           -1.94904515002738       -4.07440720353618       -1.11118357550366
H           -3.29724934963439       -2.07021001233317       -2.09479808422812
H           -2.74725916184067       -0.47899769912028       -1.90974524609390
H           -3.35362451502270        3.15406614711603        0.60345633443287
H           -1.99269903257640        4.16290340686461        1.01921480769354
