32
 energy: -54.328047573782 gnorm: 0.000437948461 xtb: 6.6.1 (8d0f1dd)
N           -3.62654719920963       -3.32521723873432       -0.34874043194862
C           -2.76807343993744       -2.56727879771630       -0.23312498341332
C           -1.73902093910045       -1.60701766221052       -0.09809326879503
C           -2.26103922836675       -0.31210667017653       -0.13055163489996
C           -1.81158072600181        0.98307413916351       -0.00944356734751
C           -2.76496787228649        2.04581735394290        0.03852371618951
N           -4.12632337609941        1.94839345042582       -0.04731385868540
C           -2.08278442230907        3.26155834579699        0.14768071355073
C           -0.72536628609240        3.00896901311027        0.14872810776071
C           -0.47918188858495        1.62361934505390        0.05394300477337
C            0.81981638606400        1.12678117259351       -0.02236639529365
C            1.93589621568547        1.96960639226760       -0.11718634950968
C            3.11179569703521        1.22432978855349       -0.10007790287543
N            4.37169702233079        1.68805101714641       -0.17346021596900
C            2.75943892828278       -0.14901376633567        0.01714881785679
C            3.68175052971614       -1.18530145823007        0.06732684494124
N            4.47321795169767       -2.02344314047317        0.10810510871972
C            1.35167640791305       -0.26568252626873        0.04096270979608
C            0.81560204008514       -1.53507682543951        0.13799649956260
C           -0.43968264779223       -2.15043074747983        0.08039386085113
N           -0.39583325797490       -3.50604856758640        0.20412463514499
H           -3.34061611326634       -0.35689776639296       -0.26319428385332
H           -4.56919906908805        1.07268333303212        0.17594881087650
H           -4.64471458003991        2.76793797229135        0.22164146529058
H           -2.54788725151837        4.22810981702881        0.22136296397022
H            0.02458799883690        3.77016619537225        0.23682777811324
H            1.91518580032532        3.03747575897181       -0.20765191358834
H            4.54837522392737        2.66822939466406       -0.29779696435371
H            5.14261476600833        1.04354387725244       -0.18428430906113
H            1.60594626073050       -2.27735975242610        0.24249519444362
H            0.48860924298068       -3.97884602320839        0.25920100042533
H           -1.23359881035331       -4.05530447118675        0.11516861322623
