31
 energy: -54.616190031061 gnorm: 0.000516763993 xtb: 6.6.1 (8d0f1dd)
N            5.22917247137864        1.01073262081075       -0.17680630329782
C            4.13351469338238        0.66634459595570       -0.11120288891389
C            2.82805724369289        0.17606810838280       -0.05319825936753
C            1.63867826466721        0.91964594557046       -0.03373197201364
C            0.53876318084684        0.06529816884155       -0.01013303381449
C           -0.76715359557109        0.57673892201583        0.00859670908636
C           -1.07525190786722        1.94082671124562        0.04389358797774
C           -0.31550790365975        3.10024324626356        0.12894064971019
N            0.17701488739649        4.14029565431771        0.20541323633075
C           -2.51201651958163        2.04319329715621       -0.01152099065478
N           -3.19420810254833        3.19254738334151       -0.00554921249924
N           -3.08866725098516        0.85770238747941       -0.07361310293692
C           -2.10279300068498       -0.08273196737489       -0.04802417668887
C           -2.57190514662823       -1.36826371488838       -0.06752234120486
C           -2.04568114182002       -2.67705814106609        0.00363149218029
N           -3.00763285884453       -3.64170826440756       -0.00259765240430
C           -0.73860615547172       -3.15464955557313        0.07415270472251
C            0.52243690205256       -2.57943401766219        0.05930043905034
C            1.07433910958795       -1.31652586203253       -0.00318442207494
C            2.49666868586587       -1.19021255822723       -0.03616274786365
N            3.43147295736901       -2.18376090840419        0.00459263004371
H            1.60832325870787        1.99145920011952       -0.04867286942513
H           -4.19753411020500        3.16976529749240       -0.03721873931496
H           -2.70528391238522        4.06805299159147        0.06390870915510
H           -3.65684205908001       -1.35611880478479       -0.12278075710058
H           -3.97964537140340       -3.39223235738720       -0.02176945774158
H           -2.76203773083727       -4.61200395785864        0.07507539941943
H           -0.70293898014416       -4.23856330694497        0.13617792644674
H            1.28868715259491       -3.34791379272616        0.11343028783064
H            4.37997167947293       -1.90063002477586       -0.18398490698127
H            3.18419234770202       -3.10750007417062       -0.30734106695590
