30
 energy: -55.680100481761 gnorm: 0.000735090781 xtb: 6.6.1 (8d0f1dd)
N            5.47721014200583       -0.31546054392608        0.21815835355209
C            4.38267708803224        0.02890535118453        0.15817862372200
C            3.05150914549823        0.44759212203589        0.09637253181863
C            2.57738757592798        1.75299210380054        0.41774206937690
C            1.21818096075636        1.81025883383642        0.20658870135536
C            0.45765887463354        2.93985461515366        0.50238805895039
N           -0.14150159445264        3.89180863612887        0.75109348471430
C            0.75897771496808        0.47623898452586       -0.15687241206075
C           -0.53191199574606       -0.01285306581297       -0.14019244706974
C           -1.73011061141882        0.81524920263297       -0.42839907892280
N           -1.71447742785635        1.98234025599903       -1.07702897936217
C           -2.85233943275474        0.06653366130383       -0.13558686764226
C           -4.18599397940312        0.43529332035403       -0.29603897827610
N           -5.29564537745131        0.71541027915823       -0.41176914613434
C           -2.41015699906921       -1.21898558359528        0.34473575882646
N           -3.26512655521087       -2.16802600853509        0.74665366890114
C           -1.00807173744686       -1.29455593298160        0.28319592976069
C           -0.33439708774500       -2.44966485599912        0.83427497428635
C            0.79810060633827       -3.07023146930858        0.46689184575932
C            1.62345822995201       -2.66821464503486       -0.65326696400188
N            2.05832925899657       -1.51434358710274       -0.90854237936890
C            1.96159282788294       -0.33934603468624       -0.26506669214411
H            3.19433035999431        2.56084726255327        0.76664480636087
H           -0.86843035554052        2.52406985633888       -1.14630151045310
H           -2.58721129734407        2.46953102697945       -1.20639810518151
H           -4.24849900589537       -1.96117237442429        0.79475211323491
H           -2.93653305892371       -3.06058513485869        1.07041116431367
H           -0.90814407616581       -2.93714647054406        1.61846044775386
H            1.06041714638322       -4.00884728698520        0.93421893717493
H            1.89543549085655       -3.44680909768603       -1.36255956934479
