27
 energy: -46.138773448726 gnorm: 0.000707814060 xtb: 6.6.1 (8d0f1dd)
N           -4.17523588377283       -0.18343322664530        0.40654459345752
C           -2.85840329891762        0.00450828931060        0.23554914750843
C           -1.91134721253972       -0.98722923698272       -0.11167441754602
C           -0.67059875962340       -0.37251220494447       -0.09650222096660
C            0.58854898686183       -0.97530872919279       -0.10028584119772
C            0.79131274163902       -2.35663866385122       -0.37151781112292
N           -0.09900270926916       -3.19623999987001       -1.00442876983298
C            2.03185639230034       -2.74946019858399        0.14122076460089
C            2.62116724869322       -1.65764753978370        0.75304658897861
C            1.81580556110694       -0.51780528193676        0.56953563172229
C            2.24973253748964        0.73723063874827        0.98290492043672
N            1.97824492571304        1.92479299333120        0.51414743439365
C            1.00271333964795        2.31334280696521       -0.28736169095442
N            1.34544970540216        3.19340661128527       -1.26197083027492
N           -0.29347387224300        2.13373144794603       -0.11644730986305
C           -1.02138313089842        1.09548305726569        0.12379893327949
N           -2.32343001637003        1.22884456826087        0.37907895304830
H           -4.71988470430201        0.58146566734954        0.76404165816932
H           -4.56967927489798       -1.10576316440880        0.37330188364468
H           -2.13031622638343       -2.03330623024176       -0.18880888466279
H           -0.71164966543736       -2.75344432476141       -1.67230994718948
H            0.30334915170674       -4.06294401820672       -1.32861886607671
H            2.44525767189247       -3.73985837357743        0.07006343803500
H            3.58202953687666       -1.64933265601898        1.23527165062871
H            3.07712047416811        0.74308004924149        1.68961233380585
H            0.60951764563522        3.73078997177360       -1.68700725865497
H            2.27737402222185        3.57005081672808       -1.25051755866701
