26
 energy: -46.420096524249 gnorm: 0.000821889656 xtb: 6.6.1 (8d0f1dd)
N           -4.45120497137279        0.95171870349016       -0.69570930301774
C           -3.23124476078756        0.53943282659522       -0.33370982987526
C           -2.14483575463019        1.35954417226914        0.05102641167553
C           -1.06573474943369        0.51811473505984        0.23701405149394
C            0.28298472518320        0.86066851732359        0.34259165536968
C            0.73484321889087        2.18925469725644        0.53379477495832
N            2.04234738499695        2.31768956416523        0.39214794877681
C            2.50938273910655        1.10020662091367        0.03391468600156
N            3.85365249097378        0.93759539171076       -0.24861697327227
C            1.49646823878059        0.13052898854042        0.00016725089716
C            1.67877271312308       -1.21776671336901       -0.41839591738905
N            2.65322160606642       -1.47077635358719       -1.31678796514661
N            1.13643644159570       -2.26767140503253        0.15626051233358
C            0.01378701174707       -2.42183186955066        0.79417712150228
N           -1.17248711376101       -1.98711567190165        0.48723665506960
C           -1.67125614852441       -0.86920923755834        0.06972916158138
N           -2.93029684747386       -0.77677041059115       -0.34768616141984
H           -5.13071790245183        0.25915241771873       -0.95729297897214
H           -4.71593803198438        1.91657674072815       -0.61531999240863
H           -2.16053298308876        2.43017549325829        0.09091746566279
H            0.13166894422252        3.03380446224618        0.80951958598024
H            4.38920556683320        1.73754557317121        0.06077007674591
H            4.25009207170926        0.05886592160748        0.05638850997472
H            3.11805680806856       -0.70768471531034       -1.77595525302057
H            2.79804845079335       -2.41589279669472       -1.62617871686890
H            0.02782248291735       -3.18705279825872        1.56978625136758
