32
 energy: -59.924355352177 gnorm: 0.000411054441 xtb: 6.6.1 (8d0f1dd)
N           -3.24370175445393        4.08511253373318        1.04588009174500
C           -2.58941775798946        3.20457408642772        0.70923052917087
C           -1.80412515498833        2.09290460830857        0.31088556880766
C           -0.52512314168785        2.44542228665793       -0.15085342620782
C            0.64163332487288        1.74321344923097       -0.36169949508101
C            1.66942829433317        2.55920332178744       -0.90705715910804
N            2.43066833334728        3.23960865345442       -1.42998127370643
C            1.05063507765559        0.40974490501131       -0.06585296669502
C            2.39354849822698        0.12463272593337        0.14201374728854
C            3.48162047499382        0.98508052217024        0.31735054243722
N            4.44560766982766        1.56998274336668        0.54099391819008
C            2.56540630153341       -1.30001370456287        0.28562687897814
N            3.72890055412228       -1.90053135737895        0.54733709239652
C            1.31589202204689       -1.89657892629838        0.11120918075607
C            1.16964286007751       -3.27527184570351        0.27104311785365
N            1.17808961813482       -4.41444205119411        0.43687740399138
C            0.32313473253429       -0.87741513492800       -0.08318063546548
C           -1.00406634971578       -1.17384073124891       -0.31008766157164
C           -1.41883872200664       -2.49284712966856       -0.65724655274687
C           -2.78344739360732       -2.57084068575776       -0.67162237635998
C           -3.31822558606202       -1.31461601907513       -0.28960210550960
N           -4.64431360494052       -1.06355723721500       -0.22795937612718
C           -2.25380508736343       -0.39928531724510       -0.10198033631718
C           -2.51335305636578        0.89465232466565        0.31444326204393
H           -0.42371077535174        3.51264258947021       -0.33497100782090
H            4.56168606970289       -1.35077719684689        0.67988464425100
H            3.76927105578319       -2.90091141501463        0.64995263461062
H           -0.75416035431836       -3.29270095640958       -0.91662109943938
H           -3.36985366071574       -3.43375056613898       -0.92799357493100
H           -5.28274078195356       -1.83752096531329       -0.27597769529601
H           -4.99197576922944       -0.19998102414924        0.15005957663641
H           -3.54541140834132        1.04679221683046        0.62357293722593
