29
 energy: -55.980962208132 gnorm: 0.000946297586 xtb: 6.6.1 (8d0f1dd)
N            5.87609862842403       -1.09153519158386        0.08512234571273
C            4.82600537121113       -0.63072261923863        0.00545001915336
C            3.53269947960391       -0.10994032529437       -0.08078865304845
C            3.16413194947033        1.17417593541585       -0.51745042108940
C            1.78625756085343        1.32794212143014       -0.42867016160729
C            1.13024453465138        2.49586193487330       -0.84008468701864
N            0.03921568302726        3.00246899169887       -0.38617077490976
C           -1.06062996901112        2.68348891465597        0.21115877177233
C           -1.83064064601855        1.51931056066152        0.08864529613129
C           -3.19247649157503        1.69919890213361        0.42351405670385
N           -4.27958115127318        1.90173549392008        0.73142909633031
C           -1.40913744777493        0.19551976163361       -0.15248271285103
C           -2.30119600731514       -0.86969908691116       -0.23994456697533
C           -3.67405353778439       -0.91299808038161       -0.47085867737175
N           -4.78687709213183       -1.09356603875056       -0.69936169073517
C           -1.52251457059886       -2.07072107385204       -0.07429215281187
N           -2.01946371401955       -3.30727424852793       -0.09529942274078
N           -0.24080924822018       -1.80054735363683        0.10859033106346
C           -0.06632179436386       -0.44904889181762        0.00303903516902
C            1.21890390379948        0.04814694824558        0.01996762259988
C            2.36013861970984       -0.82792806227416        0.21647443503418
N            2.28489288117961       -2.09281134075242        0.63061340580020
H            3.85251201024371        1.93276752613233       -0.84251330573548
H            1.66932313119535        3.14412925150056       -1.52679141097034
H           -1.51352742307705        3.50344606026243        0.76457665907619
H           -1.41224411847425       -4.09957825048019        0.01907177395536
H           -3.00296238919038       -3.44635166188961       -0.25426896936252
H            1.34464559300628       -2.48640990450566        0.63157639679732
H            3.11705630755028       -2.65762528427177        0.66601575632732
