27
 energy: -50.944649823117 gnorm: 0.000845017454 xtb: 6.6.1 (8d0f1dd)
N           -4.10596307711177        1.78392847154673       -0.41032120468433
C           -3.38158831126992        0.91507259553927       -0.20064753399799
C           -2.54906100199938       -0.17424221225691        0.04637760647392
C           -2.99352919852570       -1.40583100388506        0.56500899267721
N           -2.03143246388563       -2.30356643420218        0.73431450546609
C           -0.89608463581429       -1.73057180971798        0.30801236483251
N            0.15240771469233       -2.43814229515382        0.06024991921551
C            1.39249911571870       -2.15762749750775       -0.29190415835137
N            1.93196455505451       -2.95176679254324       -1.23823416159096
N            2.21530678835291       -1.35165042164752        0.35836592521243
C            2.09171952000522       -0.09050707098274        0.66378097967082
N            3.03691954077492        0.40917692320420        1.49267191019013
C            1.19103971082656        0.84632045649696        0.05910653776256
C            1.50224013674886        2.18227435936822       -0.20217915508120
N            2.68720979999335        2.84130713875614       -0.03139155422210
N            0.42816232052700        2.87789907379324       -0.69209813974464
C           -0.58178797707969        2.05398804650534       -0.69681937607543
C           -0.22256018328864        0.72780553823412       -0.26055699813488
C           -1.14304154983574       -0.27854206917887       -0.05472793789357
H           -4.01022129522136       -1.64544810167243        0.82555091021158
H            1.39753341713109       -3.73624643227064       -1.56910375073218
H            2.92538287115053       -2.93068505923330       -1.38580887031702
H            3.61988112142443       -0.24923729788669        1.98183236773777
H            2.91196940734146        1.32855082170584        1.87990642306221
H            3.53281850434312        2.29703792110025       -0.10677101895928
H            2.70796815370265        3.73948274630093       -0.49084049041405
H           -1.55128287635534        2.36240210708654       -1.03791574641459
