32
 energy: -59.930254507676 gnorm: 0.000625634307 xtb: 6.6.1 (8d0f1dd)
N            6.06808065803368       -0.52951601272540       -0.73861988755216
C            4.98180873833108       -0.28598337901186       -0.45816689664697
C            3.66281536819143        0.03365222828216       -0.11184335224092
C            3.26540498306480        1.18975728160821        0.60155106657945
C            1.88131308211814        1.22735358350044        0.67207558739493
C            1.23661092415764        2.28163423178144        1.34477733166233
C            0.00066587268377        2.84843675449136        1.26060061513702
C           -1.12850478592215        2.60896171731159        0.43202931920355
N           -1.89272415230221        3.70581870674827        0.21716806196526
C           -1.61303884389869        1.39460979379092       -0.09545097934218
C           -2.80601923875414        1.53003386370692       -0.84959707996031
N           -3.70814651545342        1.70366474319358       -1.54011469950056
C           -1.21446136212678        0.04868352679020        0.06226487108475
C           -2.15728505678452       -0.98339935841565       -0.02709536433013
C           -3.55137002629343       -0.90341065141696        0.02597731313102
N           -4.69606640417207       -0.94626631895926        0.12325824650151
C           -1.48185304062822       -2.23965695615656       -0.03781658837534
N           -2.06699054444690       -3.43729999838210       -0.04659736742997
C           -0.09340456822679       -1.97954560726763       -0.01841175023002
C            0.83054131863855       -3.02602077669194        0.02529347347787
N            1.49607809972585       -3.96283539823428        0.07176982050974
C            0.12196305234040       -0.58635118547289        0.07622722144340
C            1.39092911432084       -0.01546292902338        0.05429958569485
C            2.52789227059796       -0.71155086185264       -0.40701982906255
H            3.93530836534653        1.93742674160564        0.98462948550453
H            1.92053056772549        2.82690183011167        1.98818365048734
H           -0.11240180646268        3.75846230455848        1.84100603408140
H           -1.61400024852286        4.59814156435978        0.58436380385294
H           -2.74139198415559        3.64688494916086       -0.32113052361821
H           -3.07116227209104       -3.50993444544001       -0.04235299490527
H           -1.50651879940640       -4.27369605189473       -0.03446482214300
H            2.52117650007273       -1.64302619595597       -0.93901508827496
