30
 energy: -50.887391695737 gnorm: 0.000953788356 xtb: 6.6.1 (8d0f1dd)
N           -3.83569253000977       -3.15143817180445       -0.15612916106392
C           -2.99486640648746       -2.37152327358940       -0.07217130378177
C           -1.96056011306393       -1.40999597550879        0.03400868624597
C           -0.79355115314442       -1.97112701333494        0.55889238923119
C            0.53567461804413       -1.60100222386560        0.58358917707802
C            1.24012813002859       -0.47488718414072        0.17268244735608
C            2.63700585328415       -0.52808559350993        0.03100340316210
C            3.45822717149131       -1.63994688356991        0.18837525655146
N            4.17938827524170       -2.52918217748939        0.31336501665867
C            3.11380397355741        0.76347639843229       -0.34284259342176
N            4.39424344602008        1.05444958615180       -0.61920008885572
C            2.02142209703652        1.63419205882593       -0.36601336645850
C            0.85115665429986        0.93847787304902       -0.06247567729316
C           -0.37412030768959        1.58234767816308        0.14084926132055
C           -0.43104846391038        2.96856611794339        0.40076189512175
C           -1.74845685820664        3.36965984721700        0.47904763791059
C           -2.56102575520651        2.27163945214682        0.18648766953599
C           -1.76396320184167        1.13561413161959        0.00728199554450
C           -2.34791854177033       -0.10092009185513       -0.35865684001549
N           -3.51562228630680       -0.01688030978601       -1.03773846334199
H           -0.95749816844497       -2.98498604459648        0.91399932298439
H            1.19427692537131       -2.39938122060207        0.91405649664471
H            4.66285912762294        1.98658991956921       -0.87820310899667
H            5.09513149070735        0.33556809405353       -0.56664946472246
H            2.08297428120836        2.67545369145307       -0.61625632993973
H            0.42145050134248        3.59287998024705        0.58608018987014
H           -2.09887752217923        4.35534813953006        0.72543061252388
H           -3.63667759240501        2.29347911256112        0.20619693615989
H           -4.09050356883610       -0.83244520318792       -1.17216528588019
H           -3.89211072665295        0.88658187377659       -1.26332763843115
