30
 energy: -54.114165710581 gnorm: 0.000984462484 xtb: 6.6.1 (8d0f1dd)
N            4.67152330546970        1.29289902196979       -0.87158293552069
C            3.72672413708191        0.68854912101356       -0.60688315615541
C            2.62844051140326       -0.10599893814728       -0.30355297412900
C            2.67690674895996       -1.52364551320802       -0.15453790755727
N            3.78005832969259       -2.26303831568306       -0.33836018872495
C            1.40189438158684       -1.99772225987747        0.18852030003520
C            0.50499482466322       -0.93627706916638        0.21597908878528
C           -0.87996584041911       -1.04387423532119        0.31236154212511
C           -1.54416563460903       -2.25035891743828        0.68097629721342
N           -2.85021320166002       -2.17886312842143        0.55224120178746
C           -3.11709759784282       -0.95106417841101        0.03128812787116
N           -4.41877733097907       -0.62026621545815       -0.28143831900045
C           -1.96212916807970       -0.17618418300960       -0.11711797135367
C           -1.93149587098200        1.11995185541254       -0.71950820198772
N           -2.88331961576840        1.39150539744126       -1.64451935588690
N           -1.19992879552012        2.13634506625767       -0.35332601537350
C           -0.12646331755436        2.18954820612409        0.41963866553530
N           -0.09708648366507        3.18557174763599        1.33773939987193
N            1.00770166454855        1.54636902352157        0.24364106898669
C            1.32228246203242        0.31188195066776       -0.00819448491374
H            4.63988210686114       -1.81771045644143       -0.60868287722674
H            3.76594394912351       -3.25455600506127       -0.18019010131121
H            1.15597734531527       -3.03418523338109        0.32010726228931
H           -1.08390645043348       -3.13333498582752        1.08286656535018
H           -4.66449946886256        0.35005291707849       -0.14835912874053
H           -5.07632137485612       -1.26442893864731        0.13522735294027
H           -3.39592536926746        0.63169212212330       -2.05617517308546
H           -2.82788515367242        2.27008792315564       -2.13028667933899
H            0.79410685940029        3.43783046373347        1.72950410829781
H           -0.83017161315616        3.87298424067530        1.31838888400368
