28
 energy: -50.657412690521 gnorm: 0.000909318309 xtb: 6.6.1 (8d0f1dd)
N            4.72955319126662        1.63397643913307        0.10289720114119
C            3.63704757695663        1.28727500304397       -0.00580620438142
C            2.30325402711005        0.85897069037310       -0.13056862590219
C            1.48592493407459        1.76122486678197       -0.86866369242773
N            0.25078304227712        2.06889734332703       -0.75935759369666
C           -0.85399600422625        1.58927123333838       -0.22994807479797
C           -1.95826448663939        2.32667054085454        0.13181722722025
C           -3.03157274572033        1.39946883792293        0.25283420067758
N           -4.30549056967846        1.71501763694415        0.53144004821840
N           -2.66036710297426        0.13857295472569        0.02552733398919
C           -1.31260147426312        0.16506527449518       -0.16021137472998
C           -0.54509529021419       -0.96187857836367       -0.09780722417302
C           -1.15028385964719       -2.29652277919164       -0.12755814001963
N           -2.46015762307876       -2.49435540303886       -0.24439329162111
N           -0.23839296788548       -3.25357090501951       -0.08254910386654
C            0.94541075162641       -2.62941985441652        0.08161684475430
C            0.87031011519064       -1.23829010386598        0.07978946083543
C            2.00687559687424       -0.41861042768165        0.36981258316308
N            2.96960279976199       -1.01132698778074        1.11588700574309
H            2.03024028252826        2.40798169824576       -1.55736474204423
H           -2.02844276613751        3.39041676821490        0.23222202104930
H           -4.54913363058016        2.65170966196922        0.79539998840834
H           -4.99160587599888        0.98457931905988        0.60056200918620
H           -3.03143863815017       -1.65178957609813       -0.20713216521199
H           -2.82213292804975       -3.42840323234518       -0.30864183520060
H            1.83126947744914       -3.23893524448074        0.14085980611378
H            2.88322976840893       -1.97938989265314        1.36953211996264
H            3.86493746731985       -0.56114065389300        1.21789287121097
