24
 energy: -42.979903997125 gnorm: 0.000831809126 xtb: 6.6.1 (8d0f1dd)
N            3.84253709647784        1.06309485100770       -0.38035548307253
C            2.66192571651311        0.47925739498023       -0.16139487742618
N            2.49985917655738       -0.84899049762181       -0.38216868871111
C            1.24640126736725       -1.09564519294819       -0.02603144325918
N            0.77758974476955       -2.26901702431066        0.21548891059173
C           -0.30787918157903       -2.94465531605508        0.33909103010912
C           -1.57397001144773       -2.75155682778176       -0.24114684601527
C           -2.23058481495513       -1.56802126666397       -0.48402164005617
C           -1.93402822041943       -0.22547366581119       -0.21798332193554
C           -2.92190438913874        0.75765356564255       -0.34655510612778
N           -2.50313761818081        2.00729178938348       -0.09862959881767
C           -1.20353547732310        1.91341519034646        0.17236153518845
N           -0.41596250079469        2.95153617488581        0.45793322409891
C           -0.73582098482102        0.53717530314119        0.15048508960910
C            0.59105341126873        0.24128881833621        0.25028503733813
N            1.58612367025790        1.15948651874926        0.24712904697934
H            3.98947329579697        2.01348446755701       -0.09383696870621
H            4.61778553650422        0.48003466983551       -0.63968704947024
H           -0.17753641277977       -3.86180599546173        0.91334591531548
H           -2.15726976388785       -3.65434600128620       -0.37026197824316
H           -3.24583712376288       -1.69082760307187       -0.85067331350477
H           -3.95111012443406        0.58895642675648       -0.61176275242601
H           -0.76900293479706        3.88163104209921        0.31387601456351
H            0.57950150270816        2.74353697909169        0.48133625247836
