27
 energy: -46.921719526816 gnorm: 0.000611943699 xtb: 6.6.1 (8d0f1dd)
N           -3.09872970099946        2.73974862287320        0.68924465278930
C           -2.75718047131514        1.66546882588729        0.45729604650666
C           -2.41841986099620        0.33744264457915        0.19505995867553
C           -3.33503343761579       -0.70644697227978        0.23598278540503
C           -2.66784101050126       -1.91307890706754       -0.00529541529799
C           -1.30632073530475       -1.68491057619859       -0.13804168541491
C           -0.42868409618087       -2.69989128602070       -0.56150652749494
C            0.94477295900452       -2.77975009063204       -0.58772982623787
N            1.85541121316885       -2.10626537211770        0.08486976389179
C            2.04069000961474       -0.89258863979413        0.47149287805141
N            3.03730750194576       -0.68682171119781        1.37459853796315
C            1.42630169082791        0.28931100757473       -0.08303975009162
C            2.06150262711040        1.50036832865066       -0.31494837227880
N            3.38515632774341        1.81035236436145       -0.23334365240435
N            1.16338334693396        2.49128505072669       -0.66405008899914
C           -0.01954268093016        1.97542028321381       -0.56232372511399
C            0.01408948884565        0.55870999698021       -0.21658704976342
C           -1.11051090777922       -0.20970656854856       -0.02880720557212
H           -4.38707393439464       -0.59495359901484        0.43009654044692
H           -3.13673990151429       -2.87836207859505       -0.05863108589537
H           -0.93924497400059       -3.57654342203629       -0.94394345210822
H            1.37181348378950       -3.63545511563876       -1.10530383633191
H            3.39351589830518       -1.49099798330947        1.86450617957399
H            3.10769970778850        0.21084166561676        1.82194792456433
H            3.63617779075069        2.68248131805972       -0.67157323076212
H            4.04765970319225        1.05671363373417       -0.32100363354598
H           -0.89538672448856        2.54045674059347       -0.81559224555566
