33
 energy: -58.852483496781 gnorm: 0.000793506037 xtb: 6.6.1 (8d0f1dd)
N           -5.44003452278974        0.23647520612115        0.45470098499270
C           -4.30703869404679        0.20587886790103        0.25887573789107
C           -2.91116792436340        0.17021523307484        0.03646020875098
C           -2.30138386339980        1.39505206227227        0.35432005351749
C           -1.07547620512838        1.96950836170394        0.13905568992410
C           -0.95158733197093        3.37571024189738        0.25695525084125
C            0.27542427320438        3.78047927513667       -0.21253223222618
C            1.03186058892293        2.64142999922634       -0.55130213552041
N            2.20504994012406        2.71194218518946       -1.23083075056779
C            0.26209246726715        1.47698178465402       -0.26882899652313
C            0.79708140488019        0.20426737081763       -0.09796537621932
C            2.16161032783809       -0.05178890549811        0.17376746182272
C            3.15765304914997        0.83039824355875        0.57777181249186
N            4.03369969471880        1.49290441482127        0.92918225768798
C            2.39809170077010       -1.45551426343957        0.16736643208783
N            3.57733210001952       -2.04579336383550        0.40843860127001
C            1.18820666169553       -2.09366457027558       -0.14457621972468
C            1.03217529112182       -3.47169437687025       -0.25611246102378
N            0.92592211707026       -4.61460661170103       -0.35505259692576
C            0.14973326724160       -1.12122451311266       -0.24790989460258
C           -1.11727845417983       -1.55453498789729       -0.55627230729801
C           -2.43084015150800       -1.04216911721422       -0.50435691722559
N           -3.37674621252021       -1.90386314482494       -0.96066101860697
H           -3.02418102515558        2.10556435193605        0.75007188442363
H           -1.74221747589242        4.02302447923935        0.59011627355196
H            0.61858747970283        4.79335609131643       -0.31567143235900
H            2.72087536307173        3.57373659677202       -1.17190471025448
H            2.75842441451271        1.88215582554091       -1.35524870092475
H            4.36097660135692       -1.49450638202953        0.71536490147484
H            3.63408001620485       -3.04901844377231        0.45198797734919
H           -1.12115170697122       -2.61028267914494       -0.82252573595485
H           -3.12322740349805       -2.83846181667657       -1.22892555931555
H           -4.35359003935084       -1.68216978118809       -0.86169971810314
