25
 energy: -43.490948712408 gnorm: 0.000427650434 xtb: 6.6.1 (8d0f1dd)
N            2.87247889095911       -2.54032557201006        0.54726679536383
C            2.27531177978423       -1.56421403972185        0.40812447772053
C            1.68939860720004       -0.31569459694597        0.22455419032893
C            2.48920775922768        0.81055504114443       -0.15493776057792
N            3.81134107996253        0.75278820810880       -0.35122071904207
C            1.66816720849974        1.93672102800008       -0.27962715495539
C            0.37027945357403        1.57934663307593        0.06122171445762
N           -0.53723022651115        2.44168675847034        0.43683467068359
C           -1.82253149998196        2.40565159970662        0.58041899044481
N           -2.71071633178579        1.81473707736067       -0.18165709772906
C           -2.78022783075392        0.62086971472688       -0.67039884964761
C           -2.12126593797777       -0.54846053881351       -0.24963487082756
C           -2.71227789247529       -1.80436092991181       -0.37201978937170
C           -1.83561228991952       -2.78051980911997        0.12002045924680
C           -0.65158913569156       -2.17050541431666        0.47251607873599
C           -0.75875435007179       -0.76977438789822        0.27321889310236
C            0.34189161932695        0.07869958540899        0.25955906292041
H            4.30357250650676       -0.11024970686292       -0.19023031854832
H            4.32139456108025        1.56423398356041       -0.65170218592974
H            1.99572850732169        2.93173808338878       -0.50892398693989
H           -2.23165709302435        3.13144227056147        1.28080827031266
H           -3.58241259579031        0.48555190400708       -1.39259403797654
H           -3.70460061220434       -1.98029642682378       -0.74582646114741
H           -2.04809010889213       -3.83156095063380        0.19117370538805
H            0.22340335583889       -2.66626471755997        0.84591109948707
