30
 energy: -50.076082358785 gnorm: 0.000914313412 xtb: 6.6.1 (8d0f1dd)
N            3.39280757258518        3.23410507733525       -0.29526734763564
C            2.54054706005384        2.48598779373354       -0.09183700151196
C            1.51315416659402        1.56014088259176        0.14996394986318
C            0.47649839811821        2.04894539910174        0.99918491950239
N           -0.78439506790175        1.85724254067179        0.94928955076596
C           -1.62075351861458        1.04369116874353        0.32214859983129
C           -2.89541926196062        1.40994625524114       -0.03163078936026
C           -3.62972601735866        0.23239602136777       -0.35680923851982
N           -4.91990872662956        0.22317869538160       -0.74618337037032
C           -2.81118537958784       -0.88155056196291       -0.18463693165565
C           -1.52241617414064       -0.44613752550932        0.14447955644760
C           -0.39191751857424       -1.24139068829202        0.19730000828195
C           -0.48258731535800       -2.66290061260965        0.31615854235898
C            0.77033430894293       -3.20025897566266        0.29468436591456
C            1.70386337617306       -2.15387102576166        0.06777918734799
N            3.06754283587345       -2.37962253381971       -0.05993098273149
C            1.02303014531529       -0.93217851715782        0.01390449684215
C            1.68202517476270        0.27664571454891       -0.38583185019636
N            2.71725771523377        0.10832395832944       -1.24606895900550
H            0.77779306851414        2.81967130601626        1.70838549737987
H           -3.28662445950749        2.40842734758173       -0.03596964888910
H           -5.36781280962891       -0.64152089123497       -0.98978693081579
H           -5.39078640458389        1.08638073841163       -0.94928742078379
H           -3.10650398795372       -1.89661521009592       -0.36727508841714
H           -1.39757859401187       -3.19646732735799        0.48539628371853
H            1.03499949883769       -4.23402541449423        0.42731898481012
H            3.35814072117712       -3.27182454898758        0.31419480034612
H            3.66095742779721       -1.62126796463976        0.24743352104506
H            2.88945805127211       -0.79382563343717       -1.65212140369413
H            3.27234901376089        0.89857901316844       -1.52835912787010
