27
 energy: -47.708764311745 gnorm: 0.000833620294 xtb: 6.6.1 (8d0f1dd)
N            5.19149766091274        0.11982794748338       -0.89651912361504
C            4.10946902893653        0.09297492949144       -0.51669580744364
C            2.77354598281325        0.05078546996322       -0.04306248935605
C            2.52520181860940       -1.08473321378669        0.82055777774717
C            1.42527193793738       -1.82664980207350        1.03256476638321
C            0.10460415188548       -1.78849303847263        0.46612926861903
C           -0.64726854171408       -2.93238806750413        0.36377195045352
C           -1.93161671677133       -2.62818909072129       -0.16173650680589
C           -2.03949969337225       -1.26713477288322       -0.28878391169648
C           -3.11878461828746       -0.62532781741245       -0.90101571224135
N           -4.02476057067154       -0.13263023599766       -1.41123221563111
C           -0.76371083099043       -0.66348152682446        0.10393711346436
C           -0.52768459247798        0.67709717142201        0.19428094931191
C           -1.57096374745148        1.73514148934342        0.43985314965436
N           -2.77864736980071        1.51920582942760        0.96627753924324
N           -1.06674902857345        2.93532109619253        0.33186480453099
C            0.23735679831803        2.77845616336368       -0.01336534091663
C            0.66680208827071        1.46151979035218       -0.00005937228039
C            1.99359580866247        1.10610719208335       -0.38885684719932
H            3.42979709201413       -1.42868971028562        1.31212857077761
H            1.56401025898762       -2.68958355238114        1.67548103992763
H           -0.31211178871466       -3.92232025082298        0.61380001962959
H           -2.68686899506567       -3.34614822871723       -0.42484282177038
H           -3.34352420951658        2.33743622918242        1.12970107092185
H           -3.24452157190390        0.63276004579526        0.87001723422840
H            0.83148324131140        3.64352443076097       -0.24596008975060
H            2.48120864365243        1.87418163122144       -0.98185860648609
