30
 energy: -54.111350434895 gnorm: 0.000700924109 xtb: 6.6.1 (8d0f1dd)
N           -5.07904788497263       -0.58332183075916        0.38146790756327
C           -3.94279909961829       -0.44075586204372        0.25465945904107
C           -2.57487524846947       -0.23923444205080        0.11018927346218
C           -1.95428358973850        1.03176457167230       -0.09372751437638
N           -2.66758075234168        2.19243761516380       -0.22962193289102
C           -0.56837534119966        0.86788031443161       -0.14260028811853
C            0.34345206634358        1.89815278222118       -0.51376115332847
N           -0.13966776516715        2.88680746373563       -1.32300541333166
N            1.53656840517886        2.12304575958304       -0.05390258453809
C            2.52108583141467        1.50247408724447        0.54775567237938
N            3.26489705373119        2.28632057676393        1.36636022996293
C            3.00514663268574        0.19769318896507        0.31263306183108
C            2.32608948522294       -0.94379841496168       -0.04579385923215
N            3.01283430666131       -2.09940812742736       -0.16713565479796
C            2.08729775042322       -3.04411597982367       -0.27028459263769
N            0.82430407767503       -2.65219606294371       -0.20554051918930
C            0.87247357973798       -1.29044047494463       -0.10133388744873
C           -0.28635309629447       -0.55558855603705       -0.00540602777342
C           -1.57647812790908       -1.21514920241686        0.11715237796913
N           -1.71466439790163       -2.53435259496655        0.25687917352558
H           -3.62264075569429        2.14966221262829        0.09277110397161
H           -2.18294559463739        3.05224469494583       -0.02523919498492
H           -0.93642703497222        2.67910016111160       -1.90118573466060
H            0.53596579012684        3.54203115275970       -1.68134494570322
H            4.11707940630063        1.94008257477999        1.76694348595286
H            2.99996704025685        3.24435548116574        1.50962532280471
H            4.04955718533994        0.03083672832771        0.54336624976791
H            2.34690252507413       -4.08125167003080       -0.39520517034046
H           -2.62909260754542       -2.95055074685502        0.28355246526101
H           -0.84655651721017       -3.06281842213893        0.11201758455986
