31
 energy: -54.618703183593 gnorm: 0.000635796816 xtb: 6.6.1 (8d0f1dd)
N            4.04134098874413        3.01808541041934       -0.65045196358168
C            3.18598407623646        2.26946118812491       -0.47522807329503
C            2.20402362992558        1.29871853111740       -0.27261630700580
C            0.83560560106467        1.43814487546201       -0.35173378483560
C            0.22382664147330        0.16620199638210       -0.15610227307469
C           -1.15653779412636        0.00704333946471       -0.10749022464365
C           -2.04831773903070        1.08214709080539        0.11325953412386
C           -1.78517089079416        2.38979299474302        0.51158852772988
N           -1.68906176888360        3.48439542620787        0.85926792933456
C           -3.37898067897592        0.61222438995724       -0.01981547201044
N           -4.48040382270594        1.35555160656510        0.16541120058881
C           -3.32991957741094       -0.74851568667051       -0.37516642494260
C           -2.01394719198856       -1.17787168454604       -0.41026647822780
C           -1.67768388436632       -2.45007622623593       -0.90242985117286
C           -0.51180936605995       -3.17790964377705       -0.83273993750009
N            0.50659150915633       -3.07517163448288       -0.01096610998430
C            1.18399809643066       -2.13254212977890        0.55392798719197
N            2.00853406442416       -2.51158770296457        1.56501196499240
C            1.30891798370635       -0.77329634619722        0.09644680977048
C            2.50133479916890       -0.07096748656420        0.06144639055730
N            3.77043651457006       -0.52945207063894        0.32432083154543
H            0.31893379864681        2.34337410834809       -0.60358083443609
H           -4.39097646382199        2.31655021183723        0.44918838063466
H           -5.39405053719813        0.94634348088980        0.08847560335775
H           -4.18880442665589       -1.36256187529014       -0.57406740124120
H           -2.49206082428574       -2.94509478864469       -1.41882774499649
H           -0.47478328298206       -4.09299440964346       -1.41955012750126
H            2.47366841728828       -1.80735979393362        2.10942402722443
H            1.88938279927509       -3.43094765794179        1.95550135738345
H            3.92212745841303       -1.51848491475749        0.19954224505356
H            4.51520944896285        0.05587250154348       -0.02461042713915
