31
 energy: -53.810198116559 gnorm: 0.000577077934 xtb: 6.6.1 (8d0f1dd)
N            4.68061277727738       -1.29787334126963       -0.63962646683201
C            3.73390154247758       -0.66864608710073       -0.44863218656606
C            2.62820251542352        0.14256949377326       -0.23174741083929
C            2.66614935706900        1.57295026770115       -0.19743924067745
N            3.77512313040116        2.29786100486386       -0.41246387743446
C            1.38498406636643        2.05955809395540        0.07489774726595
C            0.49379705485654        0.99075430030657        0.15823701951393
C           -0.88770773321947        1.08167088141684        0.23443591251304
C           -1.55291746077639        2.28754408726308        0.61216405151958
N           -2.85821063920440        2.17885966145807        0.57404131104892
C           -3.12738084084499        0.93342988029628        0.09039440049207
N           -4.45005549807462        0.58488574654289       -0.11594980387209
C           -1.96925330398373        0.17883560750775       -0.12260945006917
C           -1.99115601996652       -1.12810880183245       -0.71700644023642
N           -3.08251484631357       -1.37284513145835       -1.50863745902109
C           -1.18437649439344       -2.20841615995008       -0.43830425582903
C           -0.02640493954116       -2.27468731809555        0.38086229540594
N            0.13050367583710       -3.38543636207783        1.14771129890384
N            1.00393952618253       -1.48009259769178        0.36444753532735
C            1.31514427327020       -0.25924969196127        0.04825533464435
H            3.75610447630872        3.29869998100630       -0.33397401650600
H            4.64204562965765        1.83414603533756       -0.62222183987856
H            1.12636275589492        3.09974085705155        0.12711610033699
H           -1.08633185465214        3.18266696928456        0.97797043381232
H           -5.07172922344924        1.24304357784177        0.33331168684973
H           -4.67614604821155       -0.37902490522738        0.08488231287761
H           -3.58713506646886       -0.58109183018902       -1.86903797872546
H           -3.08544975995147       -2.21144030366353       -2.06389325608965
H           -1.52821628522001       -3.16437587712404       -0.81781519441331
H           -0.51835766267685       -4.14801555476225        1.07495472873937
H            1.02658387122646       -3.54536753320192        1.57505022393808
