31
 energy: -53.028768583722 gnorm: 0.000484115945 xtb: 6.6.1 (8d0f1dd)
N           -0.89635039015430       -3.72414936373847        1.12546294688455
C           -0.50686769622323       -2.61093488939872        0.41571600089297
C            0.84466193518404       -2.32475629240531        0.37729783242107
C            1.55184304790935       -1.15989776976698        0.03724114251068
C            2.93183079468458       -1.11497515449997       -0.03929852763120
C            3.29597525286347        0.24498044732356       -0.17521872189422
N            4.56370628302669        0.72908783373832       -0.25742749483687
N            2.24401432085837        1.05389514149861       -0.15301981934995
C            1.12832508723403        0.25971728787429       -0.04372359140897
C           -0.10726760124762        0.84552452507614        0.05214100885536
C           -0.26625407745939        2.29577354005938        0.24019953820954
N            0.76957749656174        3.11525047610528        0.39691601092899
N           -1.53252550103947        2.66159659643668        0.29491398097448
C           -2.25728417673896        1.52827072080357        0.07455286623271
N           -3.62111542392399        1.62610799456928       -0.00642504436686
C           -1.46882452481784        0.38093839294788       -0.06005064829196
C           -1.93982272496309       -0.88475011066478       -0.53611408415600
N           -3.07202178286110       -0.84560494717308       -1.31358950857620
N           -1.52224981450674       -2.07587757073957       -0.27072706968660
H           -0.19476614437690       -4.39569452787227        1.38630359288509
H           -1.81809981665213       -4.07807717887013        0.93260867209866
H            1.48422247865535       -3.12558975931881        0.73582744293905
H            3.61067485573735       -1.94558999865155       -0.00160235332685
H            4.66456813537955        1.68607038518016       -0.55208221717538
H            5.28918591059252        0.09083200041828       -0.53549253440941
H            0.61571901780923        4.10034430103841        0.51377519024095
H            1.67595764523380        2.66323921327897        0.23193052863534
H           -4.13905667853151        0.79210244862336        0.22329167029801
H           -3.98284355039932        2.48242234862487        0.38483531172989
H           -3.26713511355965        0.00986701062525       -1.80666135613497
H           -3.30072002587222       -1.70617215741897       -1.78505031759166
