28
 energy: -50.648033768976 gnorm: 0.000761622851 xtb: 6.6.1 (8d0f1dd)
N            4.24794620517721       -2.79809623617446        0.06551368562586
C            3.23163343362940       -2.26151172049961        0.11136260440558
C            1.99632044636893       -1.58978098404272        0.14699780884625
C            0.94318850056151       -2.23838725433948        0.82254342826011
N           -0.31547431786369       -2.13626800593266        0.60458195688742
C           -1.23655227727528       -1.40053658199986        0.08235856554615
N           -2.35952042532570       -1.91743587871340       -0.39550621294282
C           -3.22699501637685       -0.87913387085823       -0.51169341617390
N           -4.46605986808236       -1.10425490112315       -0.96253568602832
C           -2.67409740320480        0.35888199072187       -0.13683420810368
C           -1.33637152133883        0.11250842255563        0.15579785594805
C           -0.26500853428968        0.98860434251212        0.20610238499381
C           -0.41920804483195        2.40686371332331        0.26849632372978
N           -1.54667604401991        3.08846008588059        0.58429877980769
N            0.70557038792286        3.07170175779263       -0.02352789230854
C            1.62948543853961        2.14982174093550       -0.31601474300175
N            2.85795600821960        2.54900128872635       -0.69903357507431
C            1.15458495161757        0.80399275592556       -0.14422553042896
C            2.01402088639916       -0.26093555134359       -0.30666824403107
H            1.21439372883293       -2.99305269203044        1.55895299500914
H           -5.13335783928224       -0.35943935855929       -1.04648023055450
H           -4.70399823682280       -2.03423538987395       -1.25873875689766
H           -3.16971915665173        1.30239261976749       -0.24285587042336
H           -2.22905120411860        2.62195694682155        1.15801550459829
H           -1.41455913186154        4.07472680305690        0.74190721556354
H            3.05757180513138        3.53067577684469       -0.62275404668874
H            3.62672166824285        1.90458085219500       -0.73098649752562
H            2.98202408050849        0.01417225482126       -0.71812464564849
