33
 energy: -63.658730882843 gnorm: 0.000779902794 xtb: 6.6.1 (8d0f1dd)
N            5.02575101288196       -2.79414605193022       -1.17167326409461
C            4.04077918692257       -2.29995756848862       -0.84821916398111
C            2.82717865437822       -1.72414986443537       -0.45518166812331
C            1.69803328339926       -2.44726691544809       -0.00302640548579
C            0.65199447017368       -1.55907614488422        0.21290094065901
C           -0.58538489012423       -2.00238094499672        0.77138342675171
N           -0.47334874532822       -3.02633362797505        1.64022163000598
C           -1.88896854196570       -1.62280725833518        0.39796412297970
C           -2.89464254573084       -2.51393234858482        0.83572906716958
N           -3.71044951277475       -3.23481620033157        1.20779486368895
C           -2.40233403823154       -0.58252694335266       -0.42846786984335
N           -3.55244589707118       -0.86869625777834       -1.07602146592214
C           -1.96556152086486        0.76283352484011       -0.51004087660430
C           -2.91289746165528        1.65774769344823       -1.07535987629928
N           -3.69448613534094        2.33757744687782       -1.56989773602589
C           -0.84041716448798        1.44638180313350       -0.04293133488042
N           -0.94847255219157        2.77588230391865        0.06780685852654
C            0.26815429914371        3.26210110106094        0.33596750599290
N            0.48220854756445        4.55501148444423        0.56042047739741
C            1.25736905398753        2.22366571142601        0.34541627026710
C            2.60239606451266        2.46817086637692        0.60908699539280
N            3.68888114736790        2.76315986512282        0.84522195450659
C            0.57127963816293        1.02411938217957        0.14085445722894
C            1.16584233020788       -0.22504889532025       -0.05609444838700
C            2.51430976144353       -0.37076162466533       -0.43568772497364
H            1.65575652279606       -3.51974354653093        0.06666858984831
H           -1.28657853022235       -3.51186334928620        1.98322359710192
H            0.43932771390754       -3.37622135176378        1.87485126364008
H           -4.07042807126688       -0.13285888702951       -1.53017296504589
H           -3.99927201083635       -1.76208530075319       -0.94835688213883
H            1.41118362267004        4.89556148098106        0.74190864598268
H           -0.29680904415220        5.19021444378460        0.52479166980034
H            3.17387705002303        0.42853600439780       -0.71370168983498
