30
 energy: -53.322913996896 gnorm: 0.000903557607 xtb: 6.6.1 (8d0f1dd)
N            0.55307797099004        3.83319596114440        0.97094580255883
C            0.35969346265847        2.63762913289224        0.33800283040435
C           -0.98413165388359        2.30164764980113        0.06937303047282
C           -1.58587093222043        1.07627625423335       -0.10610358768384
N           -2.92305874240406        1.01679144641325       -0.23354400460213
C           -3.22113015573822       -0.28828690355239       -0.16041581936339
N           -4.49628721708990       -0.72432486285776       -0.21081046080105
N           -2.19324093645337       -1.12436173773975        0.01798804903010
C           -1.08961618347528       -0.33001499350411        0.02318484732100
C            0.16854547058964       -0.86746107266982        0.14045729058646
C            0.37303438940921       -2.29497543460891        0.30630073799143
N           -0.62048501749526       -3.15605976608125        0.54201214723005
N            1.65514072215537       -2.63736628882554        0.24582666434448
C            2.33789608592028       -1.49754754722869       -0.00336105654925
N            3.70153993516530       -1.56125703952306       -0.16826070660788
C            1.51640968780665       -0.35917388623345       -0.06858243592991
C            1.93795930147488        0.92969968594323       -0.45795287525857
N            3.10251939509256        1.01989315711630       -1.17341292312265
N            1.46884195524483        2.08906513218962       -0.08077811146956
H           -0.21951791139505        4.27063137655969        1.43978606822739
H            1.48539434072010        4.05537465785919        1.27453380893505
H           -1.68906891638538        3.12005878057305        0.14882684703904
H           -5.18888741650264       -0.06943240757756       -0.52756799419443
H           -4.65407140945988       -1.70572539422384       -0.35511952949728
H           -1.54989221703170       -2.75378234553451        0.40411208115075
H           -0.42786338294874       -4.14136113646720        0.51650597342177
H            4.08123012030746       -2.43854176587807        0.15706615680679
H            4.21471907294639       -0.74683228459167        0.13545299740691
H            3.39109322533821        0.21230151568636       -1.69943071154112
H            3.31301323326488        1.92673857218449       -1.55781891950750
