31
 energy: -59.422522734943 gnorm: 0.000799052496 xtb: 6.6.1 (8d0f1dd)
N            5.90158213114887        0.67554817662286       -0.20083992874486
C            4.76010148085330        0.54919646759712       -0.16144973220581
C            3.37955540150872        0.33667674196447       -0.10487840370082
C            2.37538545873354        1.29740083493306       -0.07909393181393
C            1.12136543422528        0.66530712196003       -0.02326936022679
C           -0.03055711017973        1.43156302307470        0.03668781231415
N            0.06471403060988        2.76571422897403        0.08553786472406
C           -1.19775095709780        3.21450115928398        0.11071971271889
N           -1.50490407416001        4.50574801843162        0.17196076342517
N           -2.15162696561241        2.25888152275720        0.06734440054000
C           -1.49389996333330        1.10287297329537        0.02359681501776
C           -2.27865501870077       -0.05197467563043       -0.07260694628557
C           -3.64967387281325        0.30815920721483       -0.17686579262843
N           -4.77050204803080        0.54289109526262       -0.27190533156884
C           -2.03895807355024       -1.44694941209627       -0.05544493205544
N           -3.14654581830999       -2.21422918972203       -0.17528900517911
C           -0.82535396543043       -2.17998142447987        0.09032098382165
C           -1.01527081395356       -3.57884860371290        0.22325062810714
N           -1.12414146639127       -4.71736368293949        0.34265783172509
C            0.53947436419037       -1.88681396786427        0.09450409955652
C            1.36042595176296       -0.78386328338841       -0.00106165122556
C            2.77613319866580       -0.94840396940249       -0.04829810874466
N            3.48467659707481       -2.09532583904392       -0.09570013048502
H            2.50930706117398        2.36108886260760       -0.09867575625241
H           -2.47255773375539        4.77484121764915        0.18675443695573
H           -0.76989435550957        5.18930210885491        0.20041562395932
H           -4.05407389957456       -1.78374163413941       -0.24917518210950
H           -3.07972960017469       -3.21832246199951       -0.14481074772296
H            1.10957954098840       -2.81099095532413        0.17851534060294
H            4.48744724286590       -2.04074313989088       -0.04151703276602
H            3.05279836817289       -2.98714677415141        0.06935219214644
