32
 energy: -59.136485362675 gnorm: 0.000927125724 xtb: 6.6.1 (8d0f1dd)
N            4.65636675083133       -0.82210915508817        1.96376837989554
C            3.73949466362542       -0.88144800850183        1.27457765525258
C            2.60165264165966       -0.94939472829323        0.44305221473773
C            2.06897698496793       -2.18963512890347        0.22973263218815
N            1.18712793879145       -2.55205878017231       -0.70276531710405
C            0.03302497431860       -2.11391306522679       -1.02627032214451
N           -0.58824986259558       -2.70264377712309       -2.09362601816535
C           -0.77210969809584       -1.14783449184488       -0.27909873357847
C           -2.13895968957174       -1.29517513335270       -0.03352900965273
N           -2.90343794265329       -2.37115374399185       -0.28383701401956
C           -2.64398712688954       -0.07111801137860        0.53893520018685
C           -3.94812281033688        0.10701221653719        0.99533580578986
N           -5.03126187618763        0.22354461772605        1.36473587695240
C           -1.61369312864406        0.85100184535253        0.55587962014678
N           -1.62963864270431        2.03171959059766        1.18267928924196
C           -0.39745495977671        0.19455844799125        0.01226162152200
C            0.80457160545493        0.83807987176443       -0.20281107338164
C            0.94845236720190        2.24781198686396       -0.53447101179855
C           -0.07171347117031        3.10350125674636       -0.95013049750742
N           -0.90334475485741        3.82188972619659       -1.29507408333038
C            2.29346237685585        2.53726332751840       -0.62896504080888
C            3.02907610320306        1.37790176608714       -0.29370893150747
C            2.16710304301613        0.32313485305558       -0.09359320308022
H            2.52463932181361       -3.03292243400115        0.74026678122248
H           -1.33081923842448       -2.19509823212401       -2.54574800369069
H            0.00433763834417       -3.25610249510352       -2.69298148390611
H           -3.85197824127235       -2.38531701705463        0.05130655143919
H           -2.47015408647066       -3.23474325612880       -0.56375672828939
H           -0.87979098559716        2.69085623258695        1.05076902382055
H           -2.51063318834299        2.38434603994904        1.52055246483727
H            2.70965548642890        3.48201581490827       -0.92751783900551
H            4.09972676287803        1.32528716440695       -0.22329599296306
