26
 energy: -47.989870159263 gnorm: 0.000960931906 xtb: 6.6.1 (8d0f1dd)
N           -2.62329107326518       -4.12936121037070        0.00838166614081
C           -1.96971218595967       -3.18610352683232        0.00581215846591
C           -1.18132770714962       -2.00657048094958        0.00267330798835
C            0.20342431114497       -2.28155051232777        0.00179448410881
C            1.35694656623557       -1.53905706115621       -0.00479832677200
C            1.65966088440273       -0.16853780653401       -0.00283093224690
C            2.97770714224100        0.28792622854872       -0.00974659588629
C            4.14407971852794       -0.47616480796849       -0.02661696025586
N            5.10693569945247       -1.10371905474517       -0.04098992886906
C            2.91819796197479        1.72151250892711        0.00446704363635
N            1.70105861603994        2.16999027798557        0.01879075448664
C            0.85316952236763        1.07852798882713        0.01263646049569
C           -0.48426211750456        1.32863397959209        0.01572412536227
C           -0.97777513792955        2.68255292871603        0.02609218676499
N           -2.27740162832734        2.74816659640553        0.01519624804603
C           -2.75402655223817        1.46546358974789       -0.00210497354667
N           -4.08304052567221        1.28152913652397       -0.00704493310304
C           -1.71439421038956        0.50677853763051        0.00057008091472
C           -1.96436151505710       -0.85233626320828       -0.00218858913724
H            0.39090583112071       -3.35195032425079        0.00373585998847
H            2.26008155826468       -2.14241062628717       -0.01101249297535
H            3.76317163784857        2.38743981733650        0.00401810040148
H           -0.35883235588195        3.55844119155961        0.03927665273848
H           -4.66566527442467        2.09902763396400       -0.04076409699930
H           -4.49880095807659        0.37100803492443       -0.07686807552502
H           -3.02666771274445       -1.08690421426118       -0.00507112092269
