27
 energy: -42.925445367394 gnorm: 0.000648648592 xtb: 6.6.1 (8d0f1dd)
N            4.37982333698923        1.20213258612148        0.15591951397562
C            3.36381696312907        0.66073429939332        0.11023925828695
C            2.16740938617230       -0.04639892507066        0.05249807022422
C            2.09320838554953       -1.45778155713399       -0.06040636980031
N            3.14911943244006       -2.28699561369233       -0.12013406362917
C            0.74084679046863       -1.81268895008672       -0.08889921986969
C           -0.06543273388604       -0.67708993670478       -0.00824369396027
C           -1.46409384776075       -0.76736294715320        0.04814053764646
C           -2.11463369566160       -2.00042943347782        0.15557537209170
C           -3.49769287059369       -1.81880472381275        0.12732306298827
C           -3.76105942438683       -0.47119457656869       -0.01446068266529
C           -2.54734833454214        0.24866909751971       -0.04616621305830
C           -2.60525622216323        1.62488961186844       -0.15603324878694
C           -1.70092084659010        2.68075885039295       -0.10933026936627
C           -0.33115465072721        2.77489324918577        0.05226474508110
C            0.71500451519361        1.86400333690789        0.13335995237619
C            0.85806168118971        0.48860770845566        0.06071508219374
H            4.08239389201842       -1.91372235161410       -0.12479364850775
H            3.01564642695861       -3.27440832800885       -0.24375940976853
H            0.40011464020273       -2.82550191350185       -0.17595084779630
H           -1.63891193792497       -2.95535751815560        0.26639406526698
H           -4.22972075906027       -2.60278906499922        0.20472110947437
H           -4.73484973881912       -0.01972655239956       -0.06866066021817
H           -3.63069101304642        1.96920074036893       -0.26582198193949
H           -2.18343481267146        3.64917258546852       -0.19185021198984
H            0.01512120022935        3.80221341384419        0.10542522612819
H            1.68079073889285        2.35410328575336        0.23486235312281
