34
 energy: -57.761323727092 gnorm: 0.000459551500 xtb: 6.6.1 (8d0f1dd)
N            4.21487748380813        2.55908778126914        1.10867156906994
C            3.37983297783045        1.96685705572924        0.58085335121109
C            2.35854904777432        1.23134062313137       -0.04338506803811
C            1.73704388445729        1.91655022788287       -1.17154521016298
C            0.43567667267852        2.08838422811888       -1.41285889952577
C           -0.71088692595559        1.63810907234851       -0.64966030156215
C           -1.82235187370852        2.42552342077627       -0.48160108562677
C           -2.84285276660382        1.67676524961189        0.17189793191351
N           -4.06285928091591        2.15281963823852        0.53135165262367
C           -2.39038540462233        0.36306978361718        0.30692550028115
C           -3.08989825576362       -0.61138220800992        1.00609441021532
N           -3.71534695010124       -1.38543913138964        1.59186511579318
C           -1.03463194089692        0.29900281796103       -0.18491955966827
C           -0.25125455965925       -0.83610550086525       -0.30010251646576
C           -0.77731583833635       -2.19526771705566       -0.59825937605346
N           -2.04555926136205       -2.44846808916480       -0.99536010814520
C            0.27745581425681       -3.05966960537185       -0.65663973441696
C            1.46428449693010       -2.33586559976564       -0.34523983136282
N            2.69222433096596       -2.88450428861342       -0.27690652914746
C            1.15393785165412       -0.97344615640811       -0.17406106165884
C            2.10794415837099       -0.03559759863807        0.39687804373673
N            2.91704791262485       -0.58603674643733        1.38055494584644
H            2.44314721391324        2.43321245545509       -1.81332546861425
H            0.16876363244909        2.72365674237840       -2.25075016266138
H           -1.91940378741721        3.45400571602712       -0.77879339690310
H           -4.63197846710418        1.58054848325656        1.13358586901433
H           -4.18261882879152        3.14872289778437        0.60273850570321
H           -2.78197045155609       -1.83380909894950       -0.68855781212843
H           -2.29858685501833       -3.41405111338455       -1.12372166316130
H            0.23922864501024       -4.10400277769892       -0.90150486397908
H            2.80604437365567       -3.87813414372695       -0.36046972126237
H            3.47318795162492       -2.31371132243672       -0.00081093278309
H            3.49458758297323        0.07343149762997        1.88334131277194
H            2.48507893963506       -1.28937883620059        1.95992551464722
