31
 energy: -54.608403285137 gnorm: 0.000905742258 xtb: 6.6.1 (8d0f1dd)
N           -4.86783403552685       -0.53941312034862        1.00917842153334
C           -3.84038118965734       -0.08940170550091        0.74786990021484
C           -2.58933611126585        0.41898595992805        0.41160041883898
C           -2.23978612580366        1.74195057947997        0.26780805708958
C           -0.88010614740714        1.83219186355711       -0.10498595092260
C           -0.24679310946478        3.06926827286128       -0.14989172359977
N            0.22969569794578        4.11991737608930       -0.16613784770964
C           -0.31014289849345        0.53116284993984       -0.17602212286317
C            1.03619629638653        0.24857933130526       -0.38187153323233
C            2.01091825485373        1.19693329069545       -0.82230015653924
N            1.82978356894478        2.16523635557026       -1.75033054365666
C            3.26014577643827        0.85666711316867       -0.28530994239844
C            3.14194270100003       -0.31486123059276        0.45002047142381
N            4.16778884860423       -0.95489050573156        1.07534434136165
C            1.81356818732336       -0.82978184469449        0.28165444267788
C            1.49027930179300       -2.12846343213279        0.55148222689987
N            0.58673654062596       -2.89838586139811       -0.03411830901266
C           -0.61142630404541       -2.73053806955156       -0.47052633783889
N           -1.08552851520124       -3.65018842382860       -1.33971840781255
C           -1.57963044685432       -1.73805542207265       -0.04118711644434
C           -1.43257991883828       -0.40223842201280        0.11754528481716
H           -2.88160226904642        2.58926264007952        0.43394142884150
H            0.89079546761392        2.44013771800449       -1.98605561215745
H            2.51170753576850        2.90528453880654       -1.78780445574569
H            4.16311708982877        1.42309244013578       -0.42032490798448
H            3.94677846561996       -1.63267420659792        1.78477262051666
H            5.00847322919441       -0.42254756256737        1.22538117676662
H            2.18810128022825       -2.71131216231047        1.14776685062838
H           -2.06004581190627       -3.67523819068114       -1.58052094554752
H           -0.48577607436704       -4.40211459462284       -1.63197744807270
H           -2.58781309669222       -2.12265987488047        0.07561596162683
