27
 energy: -46.908097639221 gnorm: 0.000630860285 xtb: 6.6.1 (8d0f1dd)
N           -3.54575255537991        2.85109937733531       -0.04127775202250
C           -2.56588203974112        2.25083173566135        0.00873814702073
C           -1.36241284546960        1.50924421699200        0.07664303202251
C           -0.31079675854239        2.28567803837819        0.57100910378544
C            1.06542039588493        2.17866981337540        0.60382893105477
C            1.97891597986732        1.22612861250289        0.16740938371860
N            3.25693393962841        1.59092009959278        0.10266297730089
C            3.96584550019061        0.51608706793552       -0.29202206468843
C            3.18950972394514       -0.61808540540981       -0.42242887439773
C            1.86166043968265       -0.23226283848516       -0.15888911302962
C            0.79748202698823       -1.10423759820612       -0.03627971034384
C            0.99131863486732       -2.51330633529486        0.07433164116220
N           -0.13743982688363       -3.17611160844432        0.17439094606095
C           -1.13816081519321       -2.27045582384673        0.06308109355356
N           -2.44638187790610       -2.72071895119581        0.09748203939010
C           -0.65967202558660       -0.95157578661722       -0.05238625216664
C           -1.51021369436978        0.14484299760353       -0.31874358214065
N           -2.68084972704739       -0.16087856194306       -0.91284896153595
H           -0.66480933138699        3.25134336460705        0.92372755285249
H            1.57523178199157        3.06554097071038        0.96347799858889
H            5.02354039334441        0.61044055313870       -0.46566332445053
H            3.52752478850081       -1.58994325195932       -0.72069853340850
H            1.93171486090854       -3.02350969009001        0.15256710293127
H           -3.07846639114262       -2.17725244026948        0.67093617413131
H           -2.47408570407469       -3.70585029289252        0.32785407673800
H           -3.37251090719567        0.55114020803164       -1.08313306971312
H           -2.85669010478061       -1.10847484811280       -1.20632046131632
