31
 energy: -53.821249740622 gnorm: 0.000869245263 xtb: 6.6.1 (8d0f1dd)
N           -4.63099992185715       -1.00818305459615        0.74351236796294
C           -3.55162531237875       -0.71641731594335        0.45730546375697
C           -2.24452051376476       -0.38148305403820        0.09121938347680
C           -1.62006492207227       -1.34367292422737       -0.79709342024684
N           -2.42403394946260       -1.86618160660576       -1.76159729540210
N           -0.44258358836963       -1.85349358564384       -0.70317850398077
C            0.71011422192395       -1.54044527416992       -0.14553137454167
C            1.68816854169509       -2.44135247425714        0.20956183255314
C            2.87917613497995       -1.68608594179555        0.36274725238952
N            4.09349255157790       -2.18515393716601        0.65954264938272
N            2.70772866839073       -0.38323245344834        0.13079249043112
C            1.37614895874769       -0.19946309005128       -0.08657969682063
C            0.81174116815329        1.04720892404121       -0.13925426599554
C            1.63981672677296        2.24242034601627       -0.28155881906548
N            2.96832583856958        2.17791636791972       -0.50777028378009
C            0.82011131481536        3.34928345424480       -0.25241646531267
C           -0.48853979370054        2.91288638849491       -0.00037110478917
C           -0.55249852986555        1.52281375038900        0.06279877008367
C           -1.74634029706119        0.85871732835491        0.49013851961332
N           -2.54666559859777        1.58923787488251        1.31249575526910
H           -2.09046780481031       -2.67611615406920       -2.25688800391979
H           -3.41758160146417       -1.71961933227110       -1.70345616710340
H            1.59809516109680       -3.50513630882300        0.29549979503875
H            4.17649619073448       -3.12876452549375        0.99092687450404
H            4.85269282610733       -1.54591732030076        0.81333116660270
H            3.37991575937695        1.27021292653302       -0.30288993656130
H            3.51324116256468        3.02042858772430       -0.46125683136189
H            1.12525504170086        4.37081590910123       -0.38321833439170
H           -1.32923375468178        3.58240552652006        0.07324831030974
H           -3.47810439840995        1.26979583014816        1.51731367264738
H           -2.28506432921155        2.52545781873158        1.55945773865014
