26
 energy: -43.189854653280 gnorm: 0.000558441468 xtb: 6.6.1 (8d0f1dd)
N            4.19531766908669       -1.66658959778462        0.13873550390494
C            3.09903788263179       -1.32832341369387        0.05806424908196
C            1.76228799232903       -0.89603827408919       -0.04676742881612
C            0.91308845300820       -1.79897762897653       -0.71739410582645
N           -0.33260613637933       -2.04053709718809       -0.50557668179871
C           -1.40553417556262       -1.46015606968363       -0.06218715886618
C           -2.54732925934807       -2.15251074363995        0.34298520672761
C           -3.61264298838537       -1.25519460837991        0.37157094654929
C           -3.18373136167816        0.02213565268993        0.01437886854444
C           -1.80007850704914        0.00035908701223       -0.16970801654353
C           -0.96989035196620        1.10573936960978       -0.24943062042444
C           -1.48122351124823        2.41332973110021       -0.47846302853355
C           -0.46749802395528        3.32681628601353       -0.35408933341307
C            0.69917939516230        2.64728826150038        0.04261927068743
C            0.45316733518462        1.27773770408374        0.08693710485278
C            1.47868938084426        0.37700922749006        0.49984023565337
N            2.39892631987366        0.88061314752146        1.35225416256653
H            1.40252018152988       -2.53372045376952       -1.35394006651367
H           -2.59018515931649       -3.20515736199371        0.54305075995606
H           -4.62533457585302       -1.51155457876743        0.63074021894291
H           -3.81110484671256        0.89068214323001       -0.03639079318393
H           -2.49262448689331        2.62504380577445       -0.76558661409456
H           -0.53461832382358        4.38497923643482       -0.52952833330406
H            1.65093638975862        3.12662396994882        0.19168583058142
H            3.25268107742727        0.37633215445260        1.52928925311069
H            2.32522624713661        1.83445121410692        1.65897809385766
