25
 energy: -48.263996948230 gnorm: 0.000501373396 xtb: 6.6.1 (8d0f1dd)
N            0.63223134806804       -4.57742619593668        0.01516116678461
C            0.40375366401776       -3.45350612825711        0.00953226688971
C            0.15948852413057       -2.05321892923068        0.00272345399887
C           -1.19073096806743       -1.73809065947356        0.00653404128848
C           -1.95129358348529       -0.56302781624473       -0.00068338695957
C           -3.35310237511965       -0.81212021749191       -0.00466009679125
N           -4.46915875026627       -1.07185398525823       -0.00481383304466
C           -1.64769271488466        0.80169864884371       -0.00286260843347
N           -2.65024394586338        1.67655205676654       -0.00846310305115
C           -2.06962649627610        2.88648027624090       -0.00071352333744
N           -0.75123640080698        2.90446087523779        0.01021079790767
C           -0.37373843839797        1.60565374169680        0.00750766717050
C            0.95843867350933        1.27996901695770        0.01086762530727
C            1.96362587365201        2.27370738685123        0.01908058760913
N            3.18947033091959        1.77794751384278        0.00723222403421
C            3.08514367410558        0.43710770012522       -0.00931653356252
N            4.19375297652200       -0.31164367398934       -0.03088651656312
C            1.71372895173903       -0.00221714628209       -0.00501204455413
C            1.37493650071234       -1.31933891019398       -0.00856423005909
H           -1.82088582497905       -2.62596112493348        0.01413355510444
H           -2.65454228692276        3.78805469195679       -0.00406370727283
H            1.78569634300632        3.33167634349497        0.03274882261119
H            5.07792809820493        0.16608001338696       -0.01927608511182
H            4.17147212218576       -1.31497475440439       -0.02579775927184
H            2.23048552750082       -1.99192803979736       -0.01923178939217
