30
 energy: -50.078431316601 gnorm: 0.000368852203 xtb: 6.6.1 (8d0f1dd)
N            3.77192459730401        2.23456766120189       -1.27748197789539
C            2.79758541241837        1.93617613229195       -0.74561720586431
C            1.58948166580994        1.57884104377739       -0.10161876596324
C            0.79431863775873        2.62681413420274        0.24022625321289
C           -0.46582762677304        2.71749795066054        0.90257047126744
C           -1.53948397818902        1.89655221343502        0.90778842404250
C           -1.80545735692655        0.64957201581078        0.26742868554789
C           -3.11590748165114        0.22425947990787        0.01097830098904
N           -4.27356996660109        0.89386943230068        0.22593639447511
N           -3.18056576444255       -1.04207846185698       -0.51386565901642
C           -1.95044651255668       -1.48835104265360       -0.52745675554910
N           -1.63685913635579       -2.68907370924303       -1.04970333777531
C           -0.98101125255326       -0.48862512645288       -0.02521110419411
C            0.35151370746494       -0.76399082846036        0.16122623680084
C            0.88729675621586       -2.08283605580209        0.33418508951336
C            2.24464052692000       -1.99252022471717        0.47908182986184
N            3.14451827603112       -2.99887351590621        0.67012524629167
C            2.62184017713464       -0.60569174927861        0.31517525939902
C            1.50051050107482        0.15284651899109        0.17319845983307
H            1.21720710062807        3.60168540515926        0.00875543804691
H           -0.60383823934877        3.66944639851874        1.40437740351394
H           -2.40645221743368        2.28326965462250        1.43655355019107
H           -4.25136975280736        1.89575215301485        0.29961939868319
H           -5.10124528094439        0.47251776085401       -0.15961195958930
H           -2.36924750644684       -3.15244182908638       -1.56242533167630
H           -0.68178113567670       -2.85765913946982       -1.31891226414875
H            0.30279786417298       -2.96856489899870        0.49607843300740
H            4.06002356927243       -2.74352620584743        1.00051486272568
H            2.79142539251678       -3.88685199800530        0.98570533056348
H            3.63703120458397       -0.25143100607099        0.31996684040580
