30
 energy: -55.681067873045 gnorm: 0.000446981001 xtb: 6.6.1 (8d0f1dd)
N            1.94706439341765       -4.85082953779940        0.15367231585449
C            1.61249303533017       -3.75485798222717        0.11289210226000
C            1.18511015055495       -2.39926908254929        0.07260429260289
C           -0.19363732137498       -2.26804594202692        0.34290300416159
C           -1.11253790467975       -1.25329014040168        0.26070285517069
C           -2.48766125260676       -1.59436025023590        0.28820215690841
C           -3.24379096235904       -0.46999510975873        0.01600636261731
C           -4.63126168975019       -0.39233066205439       -0.14197494788837
N           -5.76484689906342       -0.28232039038080       -0.29361750262412
C           -2.36679657509093        0.65204533062960       -0.11039752808861
N           -2.81767950507979        1.91279006983427       -0.37525360071196
C           -1.04425551556576        0.21691704882432        0.08078303071467
C            0.02319459167209        1.10875936922522        0.26620525004681
C           -0.11821010124614        2.45349022070031        0.57105361794774
C            1.17827439936370        3.01622416182139        0.57661467114605
N            1.52330735953023        4.27191752708670        0.86287408954362
N            2.11544573946402        2.11152200619294        0.23207587947472
C            1.50312585872969        0.93941641949106        0.07465930433506
C            2.32772074792347       -0.13013307744849       -0.29104021375409
C            3.63965053783263        0.29811860523594       -0.64390372858713
N            4.70116946112024        0.58972032317430       -0.96286651326331
C            2.19750630846170       -1.52094739135963       -0.28080770980120
H           -0.65278845548586       -3.22973550553442        0.56136480396245
H           -2.87221798529476       -2.58789833574170        0.42462321231770
H           -2.16933233262169        2.54353641759494       -0.82097099489095
H           -3.77203636633525        1.97270159341002       -0.69833511617408
H           -1.00806749600744        2.96512693479802        0.87593712294056
H            2.50062118137365        4.51008852956242        0.85459144587691
H            0.84309618740948        4.94288927489709        1.17216171021378
H            3.12429985838185       -2.02529447615682       -0.54652627271074
