26
 energy: -43.187371955184 gnorm: 0.000580818979 xtb: 6.6.1 (8d0f1dd)
N           -4.91483310320451       -0.62787677909545       -0.04434700624574
C           -3.79128996634976       -0.41196151892842        0.04785330426275
C           -2.40337524122729       -0.14287977547269        0.16569009052027
C           -2.14971101615996        1.17182109665152        0.68260462625694
C           -1.07221027764152        1.98853722820652        0.68208486637883
C            0.25326010005119        1.90732282223897        0.16031133920594
C            1.00082322629660        3.04194316812048       -0.00081811357823
C            2.30427050358010        2.70764034587655       -0.49588882670023
C            2.41601190617009        1.36055461887951       -0.54754714116975
C            1.15257500533084        0.76721910744919       -0.14367145694828
C            0.96699618570818       -0.57156633747671       -0.01824442451442
C            2.07625308125818       -1.56327354527428        0.03112417351453
N            3.37428750655416       -1.28928261321117        0.26753283369948
N            1.64545891343059       -2.79055298142314       -0.09717596727431
C            0.29278939335336       -2.71326316760640       -0.23192807143224
C           -0.21353199103976       -1.43359717377550       -0.09871197274838
C           -1.60254657957322       -1.19603847739759       -0.18146955585429
H           -3.04904814511784        1.61311086981176        1.10259432449859
H           -1.26241589044272        2.97147544871867        1.10264914765669
H            0.66129488008242        4.04485812786211        0.18407384493378
H            3.05218418287199        3.42615935679251       -0.77880085686186
H            3.23955345960054        0.80797205940720       -0.95691645790082
H            3.95650758942622       -2.08835553672997        0.46208402899035
H            3.62753139224368       -0.40725747229234        0.67901695217569
H           -0.27226768983767       -3.61449535516858       -0.38660515155958
H           -2.14528455606474       -2.08026581016144       -0.50613584930583
