29
 energy: -51.953708980035 gnorm: 0.000737543308 xtb: 6.6.1 (8d0f1dd)
N           -5.00102495954148        1.71477099613942        0.66401875064822
C           -4.03296007658410        1.15818176984649        0.39873416966791
C           -2.82969661925022        0.48318904319328        0.06970955912186
C           -3.05691735210509       -0.81885771938460       -0.46774007620685
C           -2.26900338291724       -1.90917715687792       -0.63771745368038
C           -0.93101678681626       -2.24043898703967       -0.29588019144296
C           -0.55274613541369       -3.56545719367157       -0.27761459962120
C            0.81052581645887       -3.68322068296565        0.07896220648640
C            1.34047905936477       -2.42278219909997        0.21488759445686
C            2.64830047537499       -2.20438973465843        0.65807509043088
N            3.72650403531387       -2.10585824533084        1.04583409638447
C            0.28635201634132       -1.44182311377269       -0.02869031681010
C            0.53727284287037       -0.09905642660070       -0.11240018323277
C            1.88522274236386        0.39711127614281       -0.24097147662375
C            1.86670157256015        1.76191666388287       -0.24026499219177
C            2.94835464900651        2.64012858747320       -0.38903702250925
N            3.79202362041829        3.40970368165115       -0.50451579607287
C            0.50147159409763        2.20894118804338       -0.05594308896993
N            0.17689611102087        3.51942407779329       -0.02166500001007
C           -0.33345902592418        1.09166106861885       -0.01866295213489
C           -1.70603358364944        1.25309695431095        0.24540069008888
H           -4.09654183286832       -0.96464121954907       -0.74515448902239
H           -2.79156015995206       -2.77103681955793       -1.04032690034955
H           -1.20324502008073       -4.39780219124714       -0.47437206720939
H            1.34257229576708       -4.60503141469494        0.22929213040749
H            2.75718126497526       -0.20814359325729       -0.38823886488111
H           -0.75901052242233        3.81303765681359        0.19629512921281
H            0.91376137781680        4.20000464784260        0.05015635273553
H           -1.94171529382618        2.25139002885680        0.60888122252773
