33
 energy: -58.054576727299 gnorm: 0.000473073949 xtb: 6.6.1 (8d0f1dd)
N            4.53982669293891       -1.58059922520756        0.59168738592524
C            3.56775320905033       -0.99425878392607        0.39847263933582
C            2.41899057337911       -0.23910144178825        0.18628266934863
C            1.13615527726284       -0.71079961418621       -0.09556224391454
N            0.90385414932788       -1.94726321929243       -0.49299686968079
C            0.02699359264950       -2.85263565879441       -0.25040007776574
N            0.09508739284589       -3.98603013457794       -0.98330173812198
C           -0.98697833707245       -2.81266553484489        0.78386010816815
C           -1.85638231413076       -1.79670213734946        0.98356766153556
C           -2.05348794779798       -0.55081076959557        0.32620396906415
C           -3.31255200071516        0.06762227781804        0.34321899119019
N           -4.47459751981203       -0.44284250142938        0.83854074819557
C           -3.26079914591755        1.30715383015277       -0.35124082706290
C           -1.96867537731045        1.53142680094869       -0.73733286002632
N           -1.55160619025670        2.49398982836991       -1.60175517871744
C           -1.13895711929162        0.40970693239014       -0.28077216951640
C            0.23409686337572        0.45239835476465       -0.21600218689711
C            1.07782600866593        1.61477396665399       -0.08207861883849
C            0.73425042432452        2.95617778241844        0.01237494827944
N            0.53775496682278        4.09060766971841        0.10570615644668
C            2.37769998805371        1.19150766311665        0.22150757741798
N            3.43556767643421        1.97935318167778        0.48208435670943
H           -0.51118101636640       -4.76062496429328       -0.78829483179653
H            0.80920010496224       -4.07447901094774       -1.68454497672182
H           -1.13034278854994       -3.73367094264391        1.33203335715503
H           -2.63065979522079       -2.01742974006751        1.71546209484170
H           -5.22512224267189        0.21032589149601        0.99094949866502
H           -4.42111663974700       -1.20718664545724        1.49186687967361
H           -4.10872948999446        1.93228396208801       -0.55957794345800
H           -0.56611727083246        2.68718370617421       -1.66665669562259
H           -2.14893974669583        3.29865210094045       -1.69982985354467
H            4.29597730070498        1.56687712086838        0.79840891094126
H            3.30956033278720        2.97428392440426        0.55718466669283
