32
 energy: -57.560276733677 gnorm: 0.000938460818 xtb: 6.6.1 (8d0f1dd)
N            3.53245462022583       -2.29894614045083       -0.35626305411760
C            2.91594201528416       -1.32913902653399       -0.21525824431523
C            2.27447217940153       -0.11514209363784       -0.05258995013025
C            2.96337126200330        1.10232340912169       -0.26486186800743
N            4.28200132705233        1.20218326663945       -0.52596088580534
C            2.06246533004660        2.17559203395313       -0.12706343325451
C            0.80500329527727        1.67253046056465        0.13706744335669
N           -0.18988433854805        2.42190533753236        0.59924703836685
C           -1.47485341355271        2.32971941312254        0.49174706206765
N           -2.22262495791256        3.01299650894901        1.40012815211931
N           -2.17303946927743        1.79720369370044       -0.53516830979338
C           -2.17860091606909        0.55410191267706       -0.88738641465205
N           -3.00414947007036        0.22718617527552       -1.92232022069321
C           -1.53997327259918       -0.54721254383518       -0.20664635704932
C           -2.11596667003373       -1.81215146010605       -0.06759340210472
N           -3.36679582853002       -2.21496208605780       -0.43973276306651
N           -1.27119309182722       -2.71721494754387        0.50046806734213
C           -0.11502148342351       -2.10440781452037        0.64933801648310
N            0.88254408224096       -2.68584537141961        1.33823330459628
C           -0.16929667281842       -0.69800891786300        0.21881485521913
C            0.89024715893499        0.18149936039467        0.13930581625779
H            4.67044481653085        2.08441708547274       -0.80681114671293
H            4.81675574061440        0.36508892783907       -0.68414502706585
H            2.31806386435465        3.21542264493704       -0.18928042302763
H           -1.73718648933812        3.64859669452902        2.00962050247897
H           -3.17674331121080        3.21847607857628        1.15991672764690
H           -2.86453989692564       -0.65714623258529       -2.38056024612693
H           -3.35332556910685        0.99331057439709       -2.47415050749093
H           -3.64805857382295       -3.09188861040654       -0.03021208864963
H           -4.07684249099637       -1.50154800186893       -0.48692099181900
H            1.82985003575374       -2.36630945235446        1.21531276599281
H            0.75209216254251       -3.66496421489791        1.53474685105434
