31
 energy: -54.626434882656 gnorm: 0.000826607722 xtb: 6.6.1 (8d0f1dd)
N           -5.75595959505233       -0.76636027570778       -0.01913224595107
C           -4.67058702145844       -0.38473930618476       -0.01378844240138
C           -3.34457666021582        0.04706463250270       -0.00897354507105
C           -2.88911285786520        1.37423954462116       -0.00295437619881
C           -1.49608211391619        1.41509722963034       -0.00009290348713
C           -0.87650085469206        2.66335499745701        0.00564753180051
C            0.40314504708765        3.16509033129929        0.00737626503745
C            1.69310792295751        2.60629662633617        0.00585722451916
N            2.69899998663241        3.52582630824900        0.01387826907643
C            2.14682736389209        1.27867117178491        0.00382595419400
C            1.59094502762403        0.01636198860850        0.00130337033176
C            2.44058490836190       -1.11250795508711        0.00014930814459
C            3.82712824104683       -1.14229265415386        0.00245855738993
N            4.97856486623104       -1.19737677039307        0.00289628772381
C            1.60241213813611       -2.25919479676582       -0.00390755874589
N            2.01523925203056       -3.53300731196186       -0.00654309474046
N            0.31340077468194       -1.92676805011111       -0.00579091536243
C            0.21829041452416       -0.56900687636179       -0.00279894683502
C           -1.03043845309747        0.00895029299485       -0.00405372651771
C           -2.22141890996708       -0.80209573043719       -0.00943299831998
N           -2.24786679124249       -2.13877781524564       -0.01435835060670
H           -3.53337378897387        2.23513757655678       -0.00105343139623
H           -1.62085254286987        3.45536972697520        0.00835025797074
H            0.43304717790879        4.25045944729381        0.01096821279495
H            3.65986483516632        3.23488267196728       -0.01230697645195
H            2.49580463441074        4.50862716754947       -0.01178746862089
H            3.23413954190838        1.22477755676655        0.00469498008001
H            2.99717065242601       -3.74397981678162       -0.00217333629558
H            1.34223469225930       -4.27798084085692       -0.00635994350105
H           -1.33298019424604       -2.58706631379122       -0.01288404352948
H           -3.12522916818895       -2.62839139045328       -0.01695749283056
