27
 energy: -52.514300033085 gnorm: 0.000944813205 xtb: 6.6.1 (8d0f1dd)
N            5.34287157235674       -0.32705033786929        0.03156929195841
C            4.19809724301255       -0.27499088168512        0.02347298861155
C            2.77497246207064       -0.22620362249709        0.01448621513067
C            2.19540257578505       -1.51352826253016        0.03357424792633
C            0.92020484536518       -2.00370450358891        0.01389588004587
C            0.71743512511950       -3.42072012144316        0.00582454671464
N           -0.55012832351675       -3.75285518730750       -0.03502550110629
C           -1.25900352668470       -2.60751723013277       -0.04426977884754
C           -0.45706243155400       -1.46499387219152       -0.01594727888513
C           -0.98282232574209       -0.16625511201602       -0.00395859713673
C           -2.34377374745964        0.13723660944845        0.00397066021897
C           -3.49427054896455       -0.64899817903178        0.00907829874862
N           -4.51884338601091       -1.17237361660962        0.01479867621738
C           -2.44963044099260        1.57388173100783        0.01453315771080
N           -3.57367930200674        2.27638420926115        0.02919317297529
N           -1.24642542247790        2.14685123436293        0.00868947696784
C           -0.32253837841561        1.17607828598410       -0.00175136396517
C            0.99624575319575        1.63541299594660       -0.01731702539107
C            1.05227328319153        3.06279448900156       -0.03593318317952
N            1.16779482662332        4.20216628343079       -0.05241334042376
C            2.27366847938379        1.06338703696544       -0.01431047982322
H            2.94780823192840       -2.29903630886860        0.05911941659613
H            1.49112173397296       -4.16657420822908        0.02163623118955
H           -2.33074887216169       -2.65215567132718       -0.07451803056570
H           -4.46800765762562        1.81385571772097        0.03280198115577
H           -3.51809291241909        3.28158073237082        0.03675114487899
H            3.05651197122662        1.81933114322661       -0.03110311162236
