27
 energy: -46.911636362992 gnorm: 0.000568147133 xtb: 6.6.1 (8d0f1dd)
N            3.42358792146814        2.74616997632421       -0.06742639447776
C            2.96566201829530        1.69104772191445       -0.02311347965995
C            2.46141367171880        0.39482042689119        0.03900539621458
C            3.20400473838830       -0.72045374376861        0.43588104370782
N            2.52099686809390       -1.86825267207222        0.39845785587957
C            1.29453348329423       -1.57015709389569       -0.03845941239799
N            0.50591238135317       -2.48978195734531       -0.49272294300844
C           -0.74255937897181       -2.76330229155698       -0.64113696712263
C           -1.82323474284414       -2.23012486363283        0.06428832117836
C           -2.04319909263444       -0.92071588135095        0.47559630963160
N           -3.15649559582638       -0.72459671394469        1.24366577160038
C           -1.43255489109892        0.28426060690890       -0.01405783088154
C           -2.16408212791640        1.46101347133508       -0.17679463374035
N           -3.52251127257104        1.65559483459434       -0.05489920596523
C           -1.27730635107479        2.52961518568939       -0.52020162211167
C           -0.00593564558124        2.05605286009381       -0.52609596568971
C           -0.02567630070135        0.64380729650163       -0.26679637783518
C            1.13411193634042       -0.08201667388546       -0.17771472453576
H            4.23273063606682       -0.71626343493980        0.75177689619429
H           -0.93076231830987       -3.62937751138094       -1.27207202873651
H           -2.63458903793800       -2.91967631128599        0.26818511221725
H           -3.56731005789770       -1.52443694194315        1.69489345723564
H           -3.28192083339315        0.16851758668148        1.68778704834811
H           -3.85784406901392        2.50067998552396       -0.49239689216217
H           -4.10724536504214        0.85053722827964       -0.22217896141543
H           -1.59570099508548        3.53279194153490       -0.73749800759743
H            0.88397309548591        2.61134401003409       -0.74687657647491
