32
 energy: -52.733165607747 gnorm: 0.000504394574 xtb: 6.6.1 (8d0f1dd)
N            4.56948834030065        0.70697646808037       -0.77899679733640
C            3.30647757610180        0.32874958266659       -0.44376960950127
C            2.89841905155995       -1.01906698384900       -0.23995430802521
C            1.56574033309435       -1.02692251492404        0.08169753188631
N            0.94407987360218       -2.08311483967302        0.60460295442984
C           -0.30863324572116       -2.41484001348676        0.60193534308082
N           -0.69673911617859       -3.32394053115405        1.54870419593450
N           -1.23626560183767       -2.14865941528419       -0.33090135105146
C           -1.70477263187303       -1.00714596208376       -0.72207256623657
N           -2.67551346593948       -1.08064175140291       -1.69143126467981
C           -1.47031852541292        0.28654944950538       -0.14917885308083
C           -2.43951380377412        1.28685009835102       -0.06241740270380
N           -3.77552156913233        1.18330726201346       -0.39402848361167
C           -1.84432156296787        2.47696470066094        0.42752430623134
C           -0.49629699120977        2.26465351775399        0.55983620428285
N            0.42815675304004        3.18267065859409        1.01111104567025
C           -0.19487608475040        0.88826282842014        0.20703602315112
C            1.09150227749278        0.40484748002377        0.06044890367359
C            2.23783599044457        1.18064610037074       -0.19442647178369
H            5.17932553576234        0.01093078549904       -1.17360884361209
H            4.71117260341603        1.65478363305093       -1.08605392964997
H            3.53632865539602       -1.87909023544831       -0.30680424757916
H           -1.53011669330021       -3.85304909527378        1.35574982343729
H            0.04361466777061       -3.78926855872735        2.04641488243814
H           -2.83695635934094       -0.25203017931906       -2.23937158284259
H           -2.72921757632209       -1.96207916064698       -2.17694818779786
H           -4.37118431916531        1.86027876889837        0.05855170784579
H           -4.14505806521820        0.24396257382289       -0.38958983679182
H           -2.37371263320785        3.38582935705963        0.65137371313869
H            1.24911279956263        2.77729915529425        1.43595723990955
H            0.02951749708118        3.94646678557171        1.53725974974577
H            2.25229151172639        2.24122522863621       -0.35995453017202
