26
 energy: -42.409246129333 gnorm: 0.000693061901 xtb: 6.6.1 (8d0f1dd)
N            0.18578646792602       -3.35278459767421       -1.05855014533409
C            0.14768293783694       -2.20315040331261       -0.33817334252948
C            1.41507794145943       -1.62324354691188       -0.01949524707083
C            1.76429945821459       -0.32535310102113        0.19422183964513
N            3.08166658055488       -0.06914445850674        0.44440933570022
C            3.23520461473529        1.23717609050943        0.34842722745401
C            2.04810258229278        1.91621225048149        0.03271506426935
C            1.03759944065814        0.96750201135714       -0.02872858952211
C           -0.31466199840306        1.25023531973244       -0.27860589584080
C           -0.76234613640312        2.51732057462099       -0.70625426392551
C           -2.14182543707095        2.56260379336236       -0.64378932603018
C           -2.60377762813152        1.35086328779724       -0.12225474466699
C           -1.51301972320342        0.50280554444715        0.07956503814470
C           -1.63531013538822       -0.81435351929544        0.58655680332474
N           -2.62599495990630       -1.06291821887978        1.47175932813688
N           -1.01379359335125       -1.87705530224845        0.13394182145664
H            1.04161423040130       -3.64456557924833       -1.49364583743395
H           -0.67939062876435       -3.77374948289590       -1.34786715426149
H            2.24662321206263       -2.31775837794037        0.00157311954773
H            4.20222668168965        1.68218505347665        0.51437051688187
H            1.94698548112121        2.97805561364640       -0.07114738525507
H           -0.12629752426465        3.31063943411382       -1.05003514043244
H           -2.76148866199968        3.39327392231858       -0.93090348460151
H           -3.63802999717675        1.08881698730734        0.02070780624651
H           -3.24186834911967       -0.31990789620271        1.74706998438429
H           -2.84417817616953       -2.01198069183332        1.71974918231235
