29
 energy: -55.978995693701 gnorm: 0.000929099442 xtb: 6.6.1 (8d0f1dd)
N            5.24802699324781        0.30881313145397       -0.98410910080307
C            4.16340244873119        0.55027679120313       -0.69169713694979
C            2.84309562489528        0.84456137500177       -0.34356889096606
C            2.30521063221868        2.10706472566772       -0.09651141191622
C            0.95509235696092        1.99805232678652        0.27316581284458
C            0.18491955599231        3.12579953637479        0.56570056532522
N           -0.39314954275899        4.08930005342174        0.81331058851855
C            0.56252654358653        0.63439422963149        0.20822366465653
C           -0.73446120092422        0.15037207217529        0.17784504480775
C           -1.85731079961918        0.98995927577956        0.42642474207192
C           -3.01444779294359        0.34102426067292        0.05471772101237
C           -4.33158333727467        0.80424838764983        0.14701458125610
N           -5.43321711725372        1.12552275781054        0.19781558157146
C           -2.66647310936550       -0.94199571253848       -0.48728278730726
N           -3.58618707545280       -1.82845615425933       -0.91968356370275
C           -1.27596608744718       -1.11287081701190       -0.36890952797371
C           -0.65869111460398       -2.29557454103781       -0.80221914127747
N            0.41716601787952       -2.88870237809969       -0.40046447029514
C            1.38282982033943       -2.43381999463090        0.39337947934672
N            1.81463024143603       -3.26077525659270        1.36100151205701
N            2.10890873591061       -1.36001510595299        0.16057392313585
C            1.83976646438171       -0.11885096183427       -0.06370374358975
H            2.84038233229570        3.03666727781591       -0.17979347441260
H           -1.80961759557777        1.97842372836611        0.83868355679965
H           -3.30672716565270       -2.65791909783349       -1.41305771654222
H           -4.53984105296211       -1.52123603548388       -1.01369963724083
H           -1.22829629402540       -2.90176157194377       -1.50486979187725
H            1.42603147962824       -4.18550444554448        1.42348735993168
H            2.67968384306165       -3.05385162224792        1.83014597081591
