28
 energy: -51.438274583891 gnorm: 0.000805739164 xtb: 6.6.1 (8d0f1dd)
N           -5.10635701416261       -0.47102664962236       -0.38477264572116
C           -3.98338345015125       -0.41144633025988       -0.14363901391908
C           -2.60952931414576       -0.32293958669825        0.13275649726489
C           -2.08626667601864       -1.26083257720394        1.07603140289066
N           -0.96627888255490       -1.85544028113822        1.00398063396974
C            0.15318462322521       -1.84307938062787        0.31581596249268
C            0.81411428055683       -2.97572847381394       -0.13345044782422
C            2.12122842442998       -2.62057797968900       -0.47406781641324
C            2.33798691099750       -1.26219328556262       -0.23026451757435
C            3.54672521368738       -0.63374021049925       -0.49962449387848
N            4.56885013400387       -0.14518464648304       -0.71984566583658
C            1.09125607277401       -0.68482424022662        0.17759495684824
C            0.69557997087515        0.62479952975434        0.23458796882420
C            1.55121954243264        1.80730863474075        0.50540761687092
N            2.80285351111747        1.78785095807117        0.97265349198459
N            0.85449515702048        2.92292487091681        0.46468042935795
C           -0.39929492176510        2.58630194964701        0.09931431628088
C           -0.60594546249401        1.21715228553668        0.00375522535993
C           -1.87964569813366        0.70801047139824       -0.45747410813880
N           -2.48002902212375        1.45144377511503       -1.40945126668389
H           -2.74653567104329       -1.59829202621565        1.87084777529353
H            0.39256457466777       -3.95995459673677       -0.18861915941176
H            2.86771029600988       -3.29004942839075       -0.86363375443691
H            3.42678376347345        1.02094032684859        0.77312386626752
H            3.20954471358470        2.68912326567484        1.16713336801470
H           -1.12908384792729        3.36617426438975       -0.03127688815311
H           -3.43570548335379        1.26096904765498       -1.66594461518484
H           -2.04307111425462        2.29353471141687       -1.74221728274580
