33
 energy: -58.837266704427 gnorm: 0.000625110436 xtb: 6.6.1 (8d0f1dd)
N           -3.32563081469861        1.70349487908920       -2.16123371852085
C           -2.51494047742300        1.59913437022366       -1.35581723676534
C           -1.47238411085304        1.45396548937273       -0.40895969991151
C           -0.78269041376111        2.55714167629098       -0.05455395397955
C            0.29244688925514        2.65597916707559        0.89892986646300
C            1.39108456325143        1.88753903547400        0.98498243876359
N            2.39803762056024        2.20549067622044        1.90822620619739
C            1.78112275648248        0.80853418820290        0.06724122033944
C            3.10685170856262        0.70236905565208       -0.44844491814449
N            4.05837576939663        1.62442503165761       -0.29707043688913
C            3.25015647016773       -0.52634151433225       -1.14773314397883
C            2.07425675040306       -1.21363721285738       -1.03304376666141
N            1.71000020607362       -2.33343986819225       -1.66562661343304
C            1.11619086855427       -0.37036676381609       -0.24052545938240
C           -0.18884884680427       -0.74993375104742        0.07898937360587
C           -0.63791606978224       -2.07831559329935        0.45175464628711
C            0.18336402946168       -3.18105214272170        0.68811349371465
N            0.86450095640554       -4.09176277265489        0.87066850545800
C           -1.98797940552030       -2.02207472174901        0.72465796050081
C           -2.43525318398291       -0.69732703214168        0.45868880756943
C           -3.75804955955401       -0.26400508960752        0.59846129989585
N           -4.84272256023395        0.07809424331149        0.75962674981958
C           -1.33840576943420        0.09057553945966        0.10598285911642
H           -1.12664243944905        3.50397422934258       -0.45866048861317
H            0.21544877043620        3.50111240454484        1.57477443928610
H            2.08738885245633        2.81903111527598        2.64949949128948
H            2.89810226696595        1.40229120509448        2.26512704741545
H            3.86223835272092        2.43541957868469        0.27013249181795
H            4.98928358229500        1.46174373577686       -0.63947135013666
H            4.12908648126925       -0.83880304325018       -1.67666736114462
H            2.40595959841370       -2.85688774800466       -2.16986831856147
H            0.87619011040134       -2.82260232343169       -1.38032168757864
H           -2.60252647623590       -2.82738706524352        1.08172048296048
