29
 energy: -49.588276972389 gnorm: 0.000831917630 xtb: 6.6.1 (8d0f1dd)
N            4.44060597346411        1.23646490259990       -0.36277752260518
C            3.23579077925042        0.65435379703953       -0.20995153079056
C            2.95552017727234       -0.72968656483850       -0.34674303190480
C            1.62193957874454       -0.87721130022867       -0.04080590620174
N            1.03122941574814       -2.02174944808263        0.26257789291956
C           -0.22321713929368       -2.35209113493591        0.34772890557841
N           -0.51495703926686       -3.38625131337377        1.18986155766521
N           -1.23388313908057       -1.97099791763360       -0.44249015789238
C           -1.73695136437989       -0.80277525489572       -0.67839698399480
N           -2.76945104800679       -0.78964394736372       -1.57848028147905
C           -1.46037165155385        0.43860580433838       -0.01045750742585
C           -2.40525555483227        1.43770881523205        0.20425651499571
N           -3.76411895527031        1.37703456122006       -0.03091935096554
C           -1.74478901475494        2.60391749658640        0.69839663979917
C           -0.40720960989327        2.36262351501771        0.72503941451523
C           -0.16298125624253        1.00591944656047        0.32622328522865
C            1.12149050360855        0.52875065233071        0.17874230674914
N            2.16855802806759        1.38025208571108        0.13612003848062
H            5.18741040712515        0.73415291871619       -0.80727840320954
H            4.48542470698721        2.23856601600479       -0.31130316965388
H            3.66425086084364       -1.50120400159064       -0.57152415304397
H            0.26545406274466       -3.89958060724311        1.56278844664315
H           -1.37664933074488       -3.88131729890500        1.03670926505800
H           -2.99486091679429        0.08947592789823       -2.01308999801720
H           -2.86461693380228       -1.61860672161216       -2.14305203490227
H           -4.15708505483810        0.44738982434323       -0.05143498316250
H           -4.30922680430204        2.03977340734288        0.49970149991609
H           -2.24873051435086        3.51171800964701        0.97920624606279
H            0.37791733445102        3.02661326581455        1.02768132533740
