29
 energy: -45.549620036074 gnorm: 0.000268453918 xtb: 6.6.1 (8d0f1dd)
N           -1.23371731189103       -3.60034300510330        0.49534060921993
C           -0.91723021315646       -2.28553876148169        0.21557774659223
C            0.45661237102795       -2.00749857248525        0.35241649935597
C            1.28688009405660       -0.93628740945851        0.11648107737097
C            2.68045019985309       -1.10553437599310        0.10164220483914
C            3.28783378770950        0.12350016375528       -0.13280738157639
N            4.61014363707766        0.35270850913550       -0.30377575046153
C            2.27734781135051        1.11759462675248       -0.21340904108696
C            1.04220233328196        0.53066692856381       -0.05985989990538
C           -0.14788137686330        1.26440222556312        0.07603099051836
C           -0.15454552295986        2.63003275786714        0.41772556754804
N           -1.38035947051236        3.14205135685672        0.46530339389690
C           -2.20996235168749        2.17057475980931        0.07860581447934
C           -1.54753558258851        0.95385243967688       -0.15279576506090
C           -2.23155128261121       -0.20718595814105       -0.58178144006409
N           -3.39149756434944        0.02890631723614       -1.25636247647849
C           -1.97322378347591       -1.55320862379332       -0.31950104982767
H           -0.57540918233795       -4.14540785760300        1.02430262326688
H           -2.20173974987875       -3.84664007494600        0.60928096264328
H            1.01822402622406       -2.90006530640822        0.62211040372820
H            3.19014063057353       -2.04585825950510        0.20619612315733
H            5.26904704557469       -0.37221890935249       -0.08080286558969
H            4.94251703321858        1.30065729100617       -0.32094151766575
H            2.46615804788435        2.16148499429442       -0.37526534942969
H            0.69250936665150        3.22818543067315        0.69791527965302
H           -3.27125652929027        2.35716244019688        0.07536806208892
H           -3.69743480186957        0.97636501412226       -1.38340702023149
H           -4.04931598112083       -0.71302511377464       -1.41873367996297
H           -2.82718589019123       -2.18606722586345       -0.55438219161715
