32
 energy: -59.118914443382 gnorm: 0.000578737370 xtb: 6.6.1 (8d0f1dd)
N           -5.27526859466875        0.07008012234660        1.40758051032792
C           -4.20005097847328        0.04101543879649        1.00253825661348
C           -2.89336066342992        0.09646213523434        0.51050826849601
C           -1.96928152844089       -0.91643017873362        0.41884446677663
C           -0.73792430045880       -0.37087141850834       -0.04906227048977
C            0.38255127744820       -1.15773392648851       -0.24144054190463
C            0.37702214484181       -2.57640390064451       -0.35043417373822
C           -0.70210610149851       -3.41654345466708       -0.62923834177891
N           -1.56635405845264       -4.13705245949312       -0.86543577358692
C            1.71061178931383       -2.98168878035177       -0.26859387169279
N            2.53396410100140       -1.96150184655093       -0.02685219552807
C            1.81676282600052       -0.83436378444862       -0.04254557548407
C            2.47869544439564        0.34922769836951        0.31359785595777
C            3.70328742438673        0.09502269827240        0.97838378306197
N            4.68766057484538       -0.04436895733448        1.55452051075590
C            2.25151354658139        1.70387263535129       -0.03864395197197
N            3.24373162573621        2.56548884190744        0.29038933010515
C            1.22038326546911        2.25937260511746       -0.81724141914267
C           -0.12589899407852        1.99312036311465       -0.98191000922109
N           -0.80681468919253        2.85639282050394       -1.78838332294675
C           -0.96191824981208        1.04869649173481       -0.29765951841083
C           -2.28796966510976        1.31379365115071        0.02550907656037
N           -2.98589126544550        2.49119956107422       -0.07128458842962
H           -2.12135380039924       -1.93559081361843        0.71561044453646
H            2.09427415258078       -3.97877149110947       -0.38722474749453
H            4.07795395791206        2.22979818362072        0.74327749738724
H            3.19407104952969        3.53064838940858        0.01764719994008
H            1.53060559690497        3.17716918737899       -1.31070939930639
H           -0.29064054548384        3.48879542118683       -2.37634317679073
H           -1.73683592808770        2.61042640425998       -2.08115658639756
H           -3.85415239198619        2.51429197893933        0.44301984975215
H           -2.45144247303055        3.34529890648138       -0.03662442365687
