31
 energy: -58.633442297946 gnorm: 0.000885118291 xtb: 6.6.1 (8d0f1dd)
N            0.59759217737594        4.24555746817437        0.66412366488041
C           -0.16124665008029        3.39967400308786        0.46490408280730
C           -1.10520291705835        2.40912270124934        0.22343315754619
C           -2.47724635857303        2.60107669145332        0.40058367371836
N           -3.20190331800137        1.50014061686028        0.18505817483836
C           -2.35008461140706        0.51774734616241       -0.08119941108417
N           -2.76440565776121       -0.60237930390250       -0.62144614079472
C           -2.28755032252621       -1.81187061319971       -0.60156334971932
N           -2.64209266506046       -2.63786312425428       -1.60885648255546
N           -1.64917719857858       -2.37383074366008        0.44019633921437
C           -0.50334346457609       -2.02819892456908        0.92360460469579
N           -0.06518880920128       -2.72288132205383        2.00538311721848
C            0.44532235004690       -1.10947883091971        0.31838035879537
C            1.81037072220343       -1.37070958920011        0.25125961599885
N            2.46937393012328       -2.49321765006431        0.63884677179561
C            2.48121898829870       -0.22177133494299       -0.29386233862484
C            3.84026863947002       -0.16960444879050       -0.58999023133843
N            4.96617606616467       -0.15645695906445       -0.82956693314502
C            1.54239794153844        0.78106158545904       -0.48456449049921
N            1.77140667793834        1.94065738887288       -1.12463253929971
C            0.22643664435208        0.26102909986606       -0.09359359678113
C           -0.92838661783014        1.00782364417619       -0.00914572432464
H           -2.95474088628439        3.52072930358251        0.68991178239898
H           -2.51776223585936       -3.62745072147475       -1.48894156278580
H           -3.32995141123290       -2.30873624519353       -2.26415911065911
H           -0.74905559648992       -3.28271133425583        2.48831707687430
H            0.69769296103439       -2.34793153503647        2.54312044386587
H            1.93860223851042       -3.33979181320127        0.76293643243220
H            3.42237666360771       -2.59217992168908        0.32668810332386
H            1.11078875711231        2.69795192313501       -1.05427246219798
H            2.73153230264301        2.19270767399309       -1.29741429999403
