25
 energy: -43.480558278710 gnorm: 0.000582286916 xtb: 6.6.1 (8d0f1dd)
N            4.23025524742665       -0.16979870893099       -0.31859780150610
C            3.08899710822314       -0.03932543616303       -0.25836158341277
C            1.69913519591980        0.17869899712340       -0.17389049633024
C            0.88375142658304       -0.94256652153916       -0.26491570322046
C            1.38269024143359       -2.24392971297693       -0.41700394449552
C            0.33709494385411       -3.10329627982828       -0.11878064626230
N           -0.79712885490442       -2.46582887375374        0.19395745172286
C           -0.57122088436503       -1.15191718072617        0.08058734870363
C           -1.64103807830613       -0.27805663312207        0.21981284402443
C           -2.92963524821671       -0.74980604738467        0.57582043845640
C           -3.85814972586139        0.24383383094331        0.34756160597888
C           -3.20395909876419        1.35639408395636       -0.19795204148740
C           -1.83163815513073        1.10146914562872       -0.24985610999878
C           -0.90792150665049        2.03505071338724       -0.71675441817727
N            0.33447698364480        2.20050217488245       -0.39667195007743
C            1.33607503671342        1.54299116920239        0.10958080485695
N            2.21233836610986        2.27020313167029        0.83920710192851
H            2.38852140371838       -2.51273166639710       -0.67274664219308
H            0.35867659864208       -4.17923783327507       -0.12432032001338
H           -3.11309681033094       -1.74257317423722        0.93636702868877
H           -4.91502346481222        0.17452326771364        0.53032001122425
H           -3.66852076966242        2.28016340181898       -0.49153059818298
H           -1.30350194245029        2.84763477502976       -1.32343218949570
H            3.11295313981340        1.88982571508045        1.07655476078303
H            2.05762190820895        3.25955290183866        0.93372025299899
