26
 energy: -47.991780171761 gnorm: 0.000986591720 xtb: 6.6.1 (8d0f1dd)
N            4.79347299960558       -1.13789838997857        0.13277432554916
C            3.70224514831694       -0.77938744362692        0.13223037097000
C            2.39909002506165       -0.27082126631188        0.09287192345360
C            1.21813699773647       -0.94635396262139        0.30745175964788
C            0.12480927327815       -0.04708910261708        0.18063486695424
C           -1.17035089192573       -0.51611410474657        0.18089598228245
C           -1.61046054605464       -1.86302144784417        0.05591081424522
C           -0.94519434124583       -3.05528439625965        0.33587986203557
N           -0.43603714983875       -4.06161366588304        0.56295273226185
C           -2.90904121977480       -1.79395291261188       -0.46746274399927
N           -3.36799592758744       -0.55235962324675       -0.61588708593956
C           -2.42363415619775        0.26632601546753       -0.13708239044407
N           -2.67817330924186        1.48120245859387        0.18308772195242
C           -2.18485608799619        2.64032022723404        0.41315516121307
C           -1.01659433452744        3.19478737986697       -0.13253164884782
C            0.17415310090589        2.55998164525579       -0.39864473854520
C            0.70161757062231        1.28703770965611       -0.14141183288726
C            2.09665344706957        1.09665664368185       -0.21344302387615
N            3.06975791855888        2.00667761137788       -0.44477960293829
H            1.13263008353616       -1.99037673331638        0.53837727606941
H           -3.52479879064441       -2.63230126776955       -0.74250213337835
H           -2.82324698774160        3.28941177668470        1.00808121600335
H           -1.02217448895796        4.27056264402916       -0.24567403724119
H            0.93262458546346        3.24927777727213       -0.75882507941384
H            2.85170162967183        2.90907133640052       -0.82989607085600
H            4.01061599700814        1.66954315871328       -0.56396312006794
