32
 energy: -58.338722289607 gnorm: 0.000816789802 xtb: 6.6.1 (8d0f1dd)
N            4.64402715455880       -0.12695867350222        0.84738104698075
C            3.54292852771486       -0.32649885256534        0.57471394310915
C            2.23545814461326       -0.72392311050162        0.30924082897047
C            1.87127584765550       -2.12014675701658        0.23424373893138
N            2.75900139183366       -3.12422614009504        0.36997495202440
C            0.51602781130048       -2.20226448517179       -0.01070382838162
C           -0.04715975724920       -0.90417735962195       -0.01011657470429
C           -1.40001091126093       -0.66311023666111       -0.16394133657707
C           -2.35192672978222       -1.65839315959076       -0.62227096582427
N           -2.06815493783150       -2.79187528978364       -1.30345210190944
N           -3.60891409493988       -1.33499191554951       -0.35072844761071
C           -3.56683230852116       -0.15660336056980        0.31233029434474
N           -4.71234792740372        0.39148469113731        0.77483469797679
C           -2.26012766681001        0.36991738158815        0.39877397875113
C           -1.92466296090573        1.55960466534369        1.04721510986898
N           -0.95933655772312        2.37655757725358        0.79888227117255
C            0.10247351244720        2.39904895844638        0.01222179758727
N            0.26936178008907        3.56387357992921       -0.66234866263732
C            1.14494310258314        1.44088333805014       -0.05621371429279
C            2.37681311997740        1.95235620351976       -0.50200506052050
N            3.33342886238153        2.44242605219105       -0.91546214762313
C            1.08796740421364        0.04758098121177        0.17137329891666
H            3.69591597758165       -2.90637577227646        0.66547871299738
H            2.43841959951554       -4.07337409588596        0.44423187945212
H           -0.04480217437174       -3.11660505872068       -0.02284356525706
H           -1.19420751634724       -2.83772612123603       -1.80102978254139
H           -2.86327689604339       -3.25148416620208       -1.71775291147252
H           -5.57019410154466       -0.03530178622507        0.47174010815253
H           -4.73039927987444        1.35567473228176        1.05229274845120
H           -2.61324356529658        1.92372543971695        1.80871737250032
H           -0.36421649302157        4.32070127951769       -0.47129845273422
H            1.16165096566010        3.76969734419036       -1.08089735380063
