33
 energy: -58.851640342199 gnorm: 0.000830373124 xtb: 6.6.1 (8d0f1dd)
N            0.54302469558276        4.47400560244398       -0.01274967388388
C            0.16023096462153        3.38863887145172       -0.04397695974106
C           -0.42665134165687        2.12370349590882       -0.04824956539040
C           -1.81787637400882        1.95324757245447        0.10865789443175
N           -2.73015105481449        2.92166761002115        0.24422205086760
C           -2.08830963385750        0.55482951288064        0.11293416592914
C           -3.37735447198259        0.05983516270177        0.31545914442207
N           -4.46505176433361       -0.23915285436849        0.54216067733032
C           -0.87752377129144       -0.15051648259732        0.02970591012498
C           -0.86176950232962       -1.54589301001663       -0.16236444550989
C           -2.04122015946101       -2.04363329325259       -0.76348166199683
N           -2.93342050390714       -2.48733923754116       -1.33817050493802
C            0.04582992227972       -2.55031292032926        0.25616098481763
N           -0.39046091687660       -3.83002655794365        0.12108312755112
C            1.26568067041373       -2.41819805621519        0.93895537441824
C            2.29914332094322       -1.49959808813083        0.89621097302721
N            3.37681848266112       -1.77865969956580        1.67391221508003
C            2.47737211564273       -0.37602147768735        0.02826375527502
C            3.72709689402143        0.01206594185789       -0.42475902117301
C            3.61271520730241        1.22964062791273       -1.13174812446673
C            2.31547633703505        1.65852870886220       -1.04922334543078
C            1.54501445595545        0.67718549893907       -0.36321817971481
C            0.19945046889894        0.85393106082366       -0.07637913194303
H           -3.70042510325684        2.68560817028535        0.36646029814838
H           -2.44432884810056        3.88614462110655        0.25004662033291
H            0.18353383003810       -4.59645744782716        0.42089296855800
H           -1.29947523278135       -4.02424548819890       -0.26323966809108
H            1.50933720669240       -3.30384024563302        1.52045435238826
H            3.38654940916802       -2.58197097812705        2.27619637160894
H            4.14416365351202       -1.13325978242915        1.70926438677594
H            4.63948871417744       -0.54923465003998       -0.32504852184551
H            4.41750626755021        1.72619599882084       -1.64142574585742
H            1.91239683866200        2.54752541103156       -1.49365290470333
