27
 energy: -51.735347963939 gnorm: 0.000674840712 xtb: 6.6.1 (8d0f1dd)
N           -5.52939725569968       -0.21332674952198        0.65497301563128
C           -4.43023777326173       -0.48646892366539        0.46097081705369
C           -3.09504981017874       -0.83071156942912        0.25272411906474
C           -2.52897976908189       -2.12768200055201        0.36574673154749
N           -1.24242508181597       -2.16954092613049        0.09327044702196
C           -0.84434987592689       -0.89884830847916       -0.16141040618984
C            0.49009696292128       -0.56601506811031       -0.16453646249517
C            1.48958653980805       -1.59714716938395       -0.17654654039198
C            2.72445825405536       -1.01507381623442       -0.10846485288183
C            3.98298124467481       -1.62393350324550       -0.15790694746778
N            5.04444540126029       -2.06035512914102       -0.20209178903180
C            2.54877609452578        0.42038888089087        0.03506184729755
N            3.59530573340723        1.27480231331224        0.20842548253976
C            1.19261907052055        0.70244712490047       -0.01095971414472
C            0.62533342483940        1.99945824153229        0.28751415276799
N            1.29665598493774        2.76835656064539        1.17693160444449
N           -0.35417697420422        2.57028639523349       -0.33954357712560
C           -1.35719431370738        2.11832706043580       -1.05542177378973
N           -2.17615399066674        1.16483349385309       -0.76221643458657
C           -2.05704355277310       -0.00460121215007       -0.19643839158390
H           -3.06091611548548       -3.02315687616917        0.63649511176861
H            1.25707371075160       -2.63918438257989       -0.27328699180501
H            3.44658534688589        2.24976493919745        0.00195122341814
H            4.50956629343733        0.91183365369662       -0.01430940036958
H            1.97554814701736        2.34799524037178        1.78749376848810
H            0.87167415473600        3.63800986646749        1.45371211849848
H           -1.66586006028032        2.76174908155785       -1.87591440937769
