28
 energy: -50.665197473781 gnorm: 0.000665092400 xtb: 6.6.1 (8d0f1dd)
N            4.73696403523166        0.98243500867217       -0.90251104164352
C            3.70031074512823        0.58829830897643       -0.59122393688133
C            2.48277349445735        0.03022397233235       -0.22706566726995
C            2.25592248311369       -1.38890689938339       -0.06847219231932
N            3.19382326047801       -2.32507499077121       -0.27467990529796
N            1.02053169000317       -1.66920030750683        0.29229535232790
C            0.33095048333814       -0.47748374948355        0.31567165012342
C           -1.02170595046842       -0.42178132915649        0.17435709979978
C           -1.82939917837985       -1.64873863841014        0.16375827467337
N           -1.31697318492050       -2.85116194029900        0.38920874200101
N           -3.10852046932363       -1.40984681952943       -0.05605310736978
C           -3.21718181517555       -0.06883565938213       -0.24358039985640
N           -4.43440169130396        0.43043649249816       -0.53791860872273
C           -1.98871000864360        0.62857843490283       -0.12670260568279
C           -1.91433848345626        2.00524062533198       -0.37532178601619
C           -0.97060547774580        2.97579195017098       -0.13991953148343
C            0.28623714275675        2.85146831882997        0.48341764346248
N            1.15388291665433        1.90842634192725        0.45525406984453
C            1.29256485744430        0.65268021988522        0.14694349153641
H            3.00526699693580       -3.28084812637770       -0.03150808005256
H            4.13129217338888       -2.04442297599589       -0.50255084517500
H           -1.90038396132851       -3.66453298218780        0.30314457823150
H           -0.29615294705343       -2.87710225413359        0.44235323074513
H           -4.61492783946415        1.41548861921280       -0.46726695306219
H           -5.20841155053682       -0.20522484893873       -0.45437667272292
H           -2.85021148613010        2.40750189013582       -0.75344821124211
H           -1.29622223136311        3.99711630658145       -0.29200711963445
H            0.62782993106183        3.72659927390520        1.03569504608684
