26
 energy: -47.196910928762 gnorm: 0.000669857802 xtb: 6.6.1 (8d0f1dd)
N           -4.73703357808950       -0.38900086455882        0.76447862306233
C           -3.72822576700868        0.11088622885231        0.53180873930262
C           -2.50270868489849        0.71429895795193        0.25897810975933
C           -2.23908126260365        2.08853593991585        0.11493858221849
N           -0.97387148759861        2.36692641244419       -0.17415583854368
C           -0.30595977503597        1.20252019516462       -0.19946324255002
C            1.06432529589456        1.12859892736738       -0.21381342094468
C            1.89118498772093        2.26313189165698       -0.53990552208115
N            3.15769652426272        1.96767016657062       -0.50826419322341
C            3.25146973217412        0.68095382712506       -0.06499698971972
C            2.01998025895259        0.08042495570809        0.11336577943657
C            1.88333245856600       -1.25534417554636        0.64670343954660
N            2.89442439858480       -1.63169565407317        1.46745048441284
C            0.96681259397854       -2.21942878659222        0.29283116735293
C           -0.22277464555635       -2.09292768377249       -0.47542918739874
N           -0.56281140909195       -3.12073766335635       -1.28609577330239
N           -1.14346312620372       -1.18422713172481       -0.31869383789692
C           -1.28347595632009        0.06591541207869       -0.04298662416108
H           -2.95888910803051        2.88269340342671        0.21432274024660
H            1.52140885051553        3.22043427828644       -0.85113309283064
H            4.22798218424868        0.24262603880337        0.04392790579919
H            2.93860883708691       -2.56730229603125        1.82917331541664
H            3.61483375859094       -0.97807462709133        1.71241389819807
H            1.19678550025308       -3.23154514609925        0.60549610059854
H           -1.47044149113200       -3.12331187213176       -1.71772363070421
H            0.02591444643933       -3.92913824707398       -1.36660963089427
