30
 energy: -55.686682514841 gnorm: 0.000944762520 xtb: 6.6.1 (8d0f1dd)
N            4.48846758393659       -3.12807122017104       -0.29804599631503
C            3.52529867800426       -2.51031355506635       -0.20890030888122
C            2.35178768997483       -1.72161310929080       -0.09722014663462
C            1.18543524488614       -2.46477364317725       -0.00105656702951
C           -0.16929288870517       -2.16934228341076        0.09909900536517
C           -0.96338647470935       -1.03449218174419        0.06926101978634
C           -2.36645018151806       -1.20943909190204        0.10125134614411
C           -3.06284765194655       -2.41246248472301        0.20169676164513
N           -3.68384243260803       -3.37738105433272        0.28934588096044
C           -3.00215779386172        0.04661828008777       -0.02292300364829
N           -4.31586651888928        0.26815364726067       -0.05984532430360
C           -1.98855823238455        1.04135951882151       -0.10524590635346
C           -2.37803681916971        2.36905546986487       -0.28339893563650
N           -2.85925950063557        3.40341532422746       -0.44124613290470
C           -0.71730395146135        0.43509631611194       -0.01969462612499
C            0.46503197036806        1.16599288912252        0.03933638582887
C            0.47961442168494        2.56874450055992        0.12898644276515
N            1.70051831134411        3.09827344497701        0.17613343797265
C            2.56927696418295        2.08890459097903        0.10028104438491
N            3.88715711815182        2.34141189219609        0.10893555704764
C            1.90853015231003        0.80484513054855        0.02377129778978
C            2.64268662976564       -0.33675449360034       -0.06673487590110
H            1.37817908430065       -3.53406712078365       -0.00607718645929
H           -0.77558716957466       -3.06767653849372        0.18228366572807
H           -4.66463670947670        1.20678741806939       -0.16952126770023
H           -4.96192994089962       -0.50086297847069        0.00609668530602
H           -0.36854888960466        3.22245237757401        0.18648931156341
H            4.17102730129528        3.29983837038808        0.20779674681486
H            4.58017909470245        1.61669428600336        0.11570957974493
H            3.71581452533612       -0.16465247002788       -0.11170257424934
