30
 energy: -54.892879765465 gnorm: 0.000488324721 xtb: 6.6.1 (8d0f1dd)
N           -4.39677940562951        0.47630903909363       -0.77718591966358
C           -3.27694475252620        0.57556688784083       -0.52821549890336
C           -1.93701244451791        0.86056992785677       -0.27687771914098
C           -1.46928225989219        2.20854701255229       -0.14047646834806
N           -2.26194543617575        3.28732114573372       -0.21459288786025
C           -0.09400635391032        2.17819706893273        0.07730289724135
C            0.37029861335977        0.85955345336130       -0.00299081244471
C            1.71664955063930        0.51909239453270        0.06930447975873
C            2.76091764016779        1.41938013752704        0.48742665050885
N            2.62378129216024        2.56091249289590        1.21340062438106
N            3.97225760559349        1.01122621577515        0.10267022217593
C            3.79261734918458       -0.11344804809208       -0.59722961859572
C            2.46058138028213       -0.53754628585130       -0.61022684574984
C            2.00981883332256       -1.71657823750859       -1.20503869104951
N            1.03552111425822       -2.46991076872957       -0.82336081506750
C            0.00573275257667       -2.40804730742466       -0.01750104361666
N           -0.21584692717533       -3.51079853531601        0.73204295199216
C           -0.99666673252011       -1.38388740409755       -0.00076130528848
C           -2.27863368960690       -1.85590495395301        0.34103974844453
N           -3.27542334130027       -2.32521186720397        0.67310624227251
C           -0.84377985931549       -0.00526611036086       -0.18478895582443
H           -3.23288896067773        3.17128578123096       -0.45238756235431
H           -1.87214445332785        4.21239441496179       -0.18027991918999
H            0.52769085043960        3.05018005101100        0.13414587380292
H            3.49401825160018        2.92490538360590        1.57024672117671
H            1.82511848518575        2.63116208930463        1.82333824235486
H            4.63467887770737       -0.63225827282575       -1.01763083443800
H            2.61607280490180       -2.14318681067529       -2.00011492126118
H           -1.10818205220356       -3.64157165032290        1.17957929595550
H            0.39002369550027       -4.30430807825438        0.61099137593435
