31
 energy: -60.197521668788 gnorm: 0.000797686113 xtb: 6.6.1 (8d0f1dd)
N           -5.14650727629904        2.21790196909612       -1.36894200476628
C           -4.14857153603306        1.78603245253634       -1.00131438745957
C           -2.91574913984217        1.29061860501533       -0.55752511102614
C           -1.83415219618622        2.10527530409276       -0.11269001250980
C           -0.74886675268691        1.29672919722953        0.16052183005643
C            0.45758036287420        1.82617256761138        0.72178461712039
N            0.27933309319178        2.86062509001739        1.56361195081838
C            1.77758862863365        1.51367562728979        0.35234440283077
C            2.73443248488802        2.47236664313431        0.75931097834205
N            3.50940643590318        3.24988524204008        1.10087441342190
C            2.34316474467999        0.48201786020611       -0.45369901646745
N            3.45696384116136        0.81619705134632       -1.13711226809414
C            1.98724710074535       -0.89010012841936       -0.46810488199804
C            2.96341005756152       -1.74925211937734       -1.04187707712420
N            3.76348687610465       -2.39665553028030       -1.54865852656442
C            0.92331533971251       -1.60781220340535        0.08245579942461
N            1.09743259166887       -2.92139861209930        0.27789833348641
C           -0.07818885646495       -3.45112907074336        0.59029614647014
C           -1.12026206914588       -2.51164521193697        0.51688623028859
C           -2.46247119212956       -2.77260899981154        0.80749794753535
N           -3.55654406646943       -3.01939395402968        1.05499363887406
C           -0.51426308741074       -1.26552682425408        0.24565995751673
C           -1.18130802501039       -0.08453741537033       -0.04763021498455
C           -2.53154016220175       -0.03443315459836       -0.47010993885754
H           -1.86299828178086        3.17972207037867       -0.08118076691229
H            1.06198268607731        3.38734251092066        1.91760358140509
H           -0.65246601964936        3.15422915823996        1.80080569712526
H            4.00980225339212        0.09868887041072       -1.58031016658377
H            3.84686755667152        1.74144142834987       -1.05730419205033
H           -0.15986877536594       -4.48565593812267        0.86993572801701
H           -3.13436197169083       -0.88452141286771       -0.72386829183576
