28
 energy: -51.426948528563 gnorm: 0.000832761137 xtb: 6.6.1 (8d0f1dd)
N            4.08894255915099        0.66893939634300        0.79976042156874
C            2.99661709427624        0.49299204354332        0.49363020946843
C            1.63991610159058        0.21875797304310        0.17311381062923
C            1.01185601048678        1.33944656947173       -0.37872927621661
N            1.77755915565097        2.34853763041568       -0.78481978538583
C            0.96968825086603        3.38329896157613       -1.06503011637427
C           -0.35750079116123        3.12234046857883       -0.75971524088066
C           -0.42087392306481        1.78198786888774       -0.36330746545437
C           -1.53227151740832        1.12937268993089        0.13675152540216
C           -2.69399789042765        1.79050475733918        0.64613762505210
N           -3.63188461758770        0.94420795050119        0.99593382318515
C           -3.19200644655415       -0.28969252525108        0.66055035895832
C           -1.89091685619803       -0.27473749937731        0.16912774419621
C           -1.23658805695884       -1.43927913644738       -0.32759972898589
N           -2.05439158601203       -2.34167913988609       -0.90324331245240
C            0.10896310450764       -1.81206634279324       -0.14568774146059
C            0.36808665739825       -3.17265031858879       -0.42395549043341
N            0.56921007775458       -4.27967924626925       -0.66492393619888
C            1.25065385391236       -1.12977633354850        0.37159473503024
N            2.15855471193832       -1.91767993235899        0.98958786681126
H            1.38302987693138        4.28304274776915       -1.48456883193572
H           -1.18868025836533        3.78527190470649       -0.89189101354730
H           -2.80114597228823        2.84545647084739        0.81202069107862
H           -3.81000630095800       -1.14627432705862        0.86501090652376
H           -1.71988543209544       -3.25281636935065       -1.17375104735380
H           -3.03584521629913       -2.13836497198676       -0.97830791069590
H            2.01414712393430       -2.91224253216246        1.04648386901801
H            3.06794568738115       -1.55003645367539        1.22194811155272
