28
 energy: -49.865061060091 gnorm: 0.000731380956 xtb: 6.6.1 (8d0f1dd)
N            1.06195389464215        3.02016405116497       -1.55259671378096
C            0.98429003009991        2.14359796702673       -0.51770846746575
N            1.99788575550372        1.34968556335170       -0.34967266587639
C            2.11085118290839        0.15712616809500        0.19426907804864
N            3.27188810354799       -0.30906909495009        0.60705724319780
C            3.10485735420108       -1.64257634520034        0.79446856506785
C            1.85257577196075       -2.10099758403286        0.45507857440408
C            1.08558799553187       -0.95608321178226        0.13358838051217
C           -0.26636734473585       -0.86111313917049       -0.09238310597549
C           -1.12962300539361       -1.98572053882842       -0.46996018137114
N           -0.69938744710895       -3.20572264749538       -0.84561678442784
N           -2.40463517620776       -1.66291665053766       -0.47430191503353
C           -2.46798532772416       -0.36122875841158       -0.06278917779836
N           -3.69216581678996        0.21593176266651        0.11511712859952
C           -1.20807139426430        0.20974668239839        0.12901946277268
C           -0.96853027395313        1.52103114535135        0.67809761905333
N           -1.90790056402813        2.00009872447720        1.54239357332134
N           -0.03734592330907        2.34753298595227        0.33332897340341
H            1.94468746417764        3.08562509948845       -2.03056744093391
H            0.46861222839190        3.83121494946198       -1.53037943031719
H            3.92356662632948       -2.22489970019874        1.18173056595165
H            1.49758908247374       -3.10484433396537        0.58861488327973
H           -1.37796911531659       -3.80593570590705       -1.28387684414062
H            0.26972128247710       -3.31651710791643       -1.09070795576428
H           -3.73827552730253        1.21892659364517        0.02641443517383
H           -4.45070747353183       -0.29854515599051       -0.30442388099528
H           -2.48502907087645        1.33452735214883        2.02821787322052
H           -1.66827416380346        2.84923725335848        2.02843613567414
