35
 energy: -67.883470743396 gnorm: 0.000858197025 xtb: 6.6.1 (8d0f1dd)
N            5.62328642263715        0.76054161021539        1.49769756827577
C            4.55166944914000        0.65837861461027        1.09860238812263
C            3.25812383173635        0.44337854182652        0.60947216658934
C            2.25963886117570        1.34552443105065        0.40209583390941
C            1.07153043473801        0.62837383741738       -0.00628827795009
C           -0.12701256756070        1.26100897579467       -0.24048228965390
C           -0.25599235615027        2.65152521868749       -0.61431371828056
C            0.78868619809683        3.49024067169992       -1.01819214043409
N            1.63320132972171        4.19220275736625       -1.35593459001416
C           -1.59202724341778        2.97155048311475       -0.67364739396234
C           -2.34911510053510        1.83843063939389       -0.25405477996026
C           -3.74775148502613        1.81160358250970       -0.18928366104773
N           -4.89592201524156        1.80366542156249       -0.19396957980289
C           -1.48869132656611        0.76881462730464       -0.01954166073122
C           -1.91474435259864       -0.42173616586213        0.64941099979654
C           -2.95407450156493       -0.21127523009165        1.58476560781730
N           -3.74753719105862       -0.07484778117806        2.40438335547670
C           -1.53730047650395       -1.74576489659756        0.46119276570087
N           -2.17935875484085       -2.71023832560263        1.15961667427279
C           -0.59130863922953       -2.23721707000805       -0.52385405074577
C           -1.03505015577154       -3.39351359828125       -1.19632826745906
N           -1.38812634238455       -4.33902949218822       -1.74735984900061
C            0.70169236622213       -1.82687848682849       -0.77858940520344
N            1.45419352793786       -2.55718943530047       -1.64734922833393
C            1.42812717665912       -0.76830933791137       -0.10692878693407
C            2.76805344648042       -0.88050561234975        0.23490087171738
N            3.56380429949566       -1.97357062231687        0.23710126528452
H            2.30157711537756        2.39853603330630        0.60082731815583
H           -2.01069541624310        3.90894801014967       -0.99062023442546
H           -2.97327932609308       -2.46530240940805        1.73102265892992
H           -2.04947136085433       -3.67792657872431        0.91486912240693
H            0.99901812402066       -3.25839240421544       -2.21108741730016
H            2.30555771564413       -2.15871746612316       -2.00463817046266
H            3.15144105568025       -2.88737131668237        0.15180935036577
H            4.46473813177657       -1.90438158443989        0.68158101848028
