28
 energy: -51.448500669518 gnorm: 0.000682994524 xtb: 6.6.1 (8d0f1dd)
N            4.51613624388301       -1.95376319637892       -0.63199669709115
C            3.48616078714752       -1.47032641359098       -0.47085979818865
C            2.27465343146250       -0.79982742003987       -0.28370730948096
C            0.99660959656245       -1.30731006447056       -0.36514960161443
C            0.06188392319485       -0.25328216995368       -0.15739305990174
C           -1.30430646293853       -0.47218717888993       -0.04737685150410
C           -1.90288864336297       -1.74489683251264        0.14757547908094
C           -1.30811330060361       -2.97400867305984        0.43486513865741
N           -0.87423512460309       -4.00904893924582        0.68557426463057
C           -3.28918783528825       -1.54003480028597        0.13734596593277
N           -3.61919646967527       -0.28151207723701       -0.12542171437083
C           -2.48706497934931        0.42946066199154       -0.23698383456650
C           -2.59199799126263        1.72377709013937       -0.72467458104434
C           -1.63396839607060        2.72637990971024       -0.83715255407708
N           -0.55248390704951        2.90664617580300       -0.14653415049843
C            0.35338515531895        2.23284176021708        0.49206553137577
N            1.01996246821069        2.88793526739240        1.46897686036240
C            0.85361369925841        0.95265219113301        0.08690217867226
C            2.19307018921363        0.60161804493286        0.04640890651563
N            3.28881806233820        1.38717674003740        0.29021600030862
H            0.74465653555641       -2.32275655844784       -0.59945834776111
H           -4.04556500010853       -2.28206081427551        0.32308804889227
H           -3.57996630560494        1.96224551746433       -1.09665067475762
H           -1.87400263866131        3.56688632394246       -1.48351544222151
H            0.65428489114438        3.76373729906110        1.80327410213147
H            1.68461414103983        2.38866383729626        2.03390646928371
H            3.17740843866203        2.38105678125642        0.16491226995444
H            4.16796953768675        1.01420834591036       -0.03601807671712
