31
 energy: -54.607860495956 gnorm: 0.000907972106 xtb: 6.6.1 (8d0f1dd)
N            4.43727692288873        2.02512299990104       -0.65594189477550
C            3.49727981995897        1.38922366329086       -0.46033628223317
C            2.39690384959159        0.57159477162797       -0.21651361229324
C            1.04002082038483        0.95680298537687       -0.20627721689066
C            0.70386824757388        2.27757610311275       -0.48358293944321
C           -0.39306045995855        3.07582187102311       -0.19192835765031
C           -1.61349663875749        2.85984239502720        0.41719409733953
C           -2.38796165853275        1.71249411349745        0.63675412779430
N           -3.52058513320359        1.90415940019780        1.35122522397746
C           -2.24732681545533        0.41719478494236        0.06743554124562
C           -3.35456641753867       -0.35590140914897       -0.25721315635230
N           -3.03072627246499       -1.56731408130874       -0.73765837703311
C           -1.71712043250921       -1.69265693534568       -0.62581690602803
N           -1.10872784244635       -2.77020976817706       -1.18415498682441
C           -1.10010255062059       -0.46553060675366       -0.14495674360307
C            0.25358337598190       -0.27246790211857        0.04826680449443
C            1.20008518158720       -1.30542251421105        0.30567927416584
C            0.98381404284482       -2.59019539675276        0.78673044072532
N            0.88940559666857       -3.66714853577812        1.19100431878818
C            2.50541958048792       -0.79302275448924        0.15585519867652
N            3.64997652842718       -1.46753235704122        0.33074792714283
H            1.54921180119816        2.83812160535011       -0.87231945847213
H           -0.20585254584138        4.12572357754843       -0.39382382666120
H           -2.10805859743763        3.77048421811157        0.74151584103105
H           -3.76962137166186        2.82110408275361        1.67982864512654
H           -4.15198093863637        1.13991178069234        1.51137737421394
H           -4.38947051693207       -0.06194013298286       -0.24289484110637
H           -0.25533383184320       -3.12577664124686       -0.78722286014232
H           -1.76339623361226       -3.46992002747206       -1.49819605215324
H            4.53180102278861       -0.99529201058395        0.22846322644103
H            3.63200215126822       -2.41966205004169        0.65375476929835
