31
 energy: -60.210819049725 gnorm: 0.000790680929 xtb: 6.6.1 (8d0f1dd)
N           -5.37143506465217        1.72825534667844        0.99922243337859
C           -4.28847608964236        1.46648742755376        0.72318629569330
C           -2.96330157713168        1.17062220128393        0.37904615062470
C           -2.01094257615315        2.10948812627161       -0.05126685161376
C           -0.77821059817380        1.46933435053735       -0.21150870826924
C            0.35089443999671        2.20106457294783       -0.65079667856863
N            0.09693974707337        3.27411419065438       -1.42096789893218
C            1.70664602699981        2.05733083580524       -0.21880161011502
C            2.47064622141958        3.24696222862342       -0.35216714464958
N            3.08573381988509        4.20913430983048       -0.46772160504574
C            2.44347893251371        1.03288226999557        0.35257745672946
C            2.29833790756556       -0.35310881871905        0.42606969661455
C            3.47231484959980       -1.01501254607844        0.88628849057464
N            4.42905705702330       -1.50180186139323        1.28652865884911
C            1.28532360247287       -1.24311718893233        0.05498581605336
N            1.62293351704245       -2.53259350292538       -0.04515540735734
C            0.50833673047704       -3.22768316391501       -0.29276521588082
N            0.52076891305504       -4.53952088644632       -0.50084086550755
C           -0.64709564481723       -2.37450632257236       -0.30170165562404
C           -1.92522664847629       -2.86539901767209       -0.55859067386331
N           -2.93428204936561       -3.36555309245550       -0.79182360009625
C           -0.18074920466748       -1.07285938212055       -0.10656902344032
C           -1.00521716005597        0.04940775906036        0.06927582199317
C           -2.35863469020502       -0.08753606509840        0.40402229185982
H           -2.20134198370592        3.16515192336031       -0.12632513874174
H            0.82146019559959        3.94217422124952       -1.63250527296470
H           -0.84815890122748        3.48235871158555       -1.69439278352464
H            3.41861424730152        1.36382597103453        0.70400133461955
H            1.40027001718721       -5.02719814287529       -0.47086904756512
H           -0.33512502039327       -5.03964965766550       -0.67332558623828
H           -2.84710083644504       -1.00137935640414        0.68148750830664
