24
 energy: -38.953155545618 gnorm: 0.000854057087 xtb: 6.6.1 (8d0f1dd)
N            3.80443398127898        0.23650962752893        0.20642022541194
C            2.59029688547940       -0.35044266137001        0.02797272198096
C            2.42273794373371       -1.73397772327692       -0.30730221899333
C            1.09858937660910       -1.98776805983903       -0.43959696263510
C            0.34523054783109       -0.76581262140304       -0.26170314461234
C           -1.02120812120946       -0.76256684979368       -0.17185401473150
C           -1.81893922628175       -1.93034610894185        0.02380105088410
C           -3.06109289665953       -1.54702975791856        0.44625136473379
C           -3.16648118406330       -0.13002633579504        0.43437719744392
C           -1.97621316555706        0.39922391482035        0.00267172364388
N           -1.83228537176022        1.64042417952170       -0.44961842152462
C           -0.82469115483787        2.42002696006160       -0.57794253956243
N            0.29870418377689        2.49615411636440        0.13152347823616
C            1.16516687694981        1.61029342901691        0.45953152412349
C            1.34311361757291        0.27414004770841        0.02218299457306
H            3.83538587564528        1.15286675241828        0.62158365227907
H            4.59029935184203       -0.36495940197496        0.38580977226368
H            3.23167096330484       -2.43417253064674       -0.41419569854319
H            0.65818478492866       -2.93443462425793       -0.68414471162280
H           -1.47100379157400       -2.94070215649719       -0.06527547471624
H           -3.85597920483666       -2.21129542620517        0.73848968347160
H           -4.04617549600671        0.43330841009091        0.68046765209530
H           -0.98365625718026        3.28387818443462       -1.22250563274067
H            1.94700057621411        1.99784179385387        1.11590053704100
