32
 energy: -53.520777699230 gnorm: 0.000780077015 xtb: 6.6.1 (8d0f1dd)
N            4.82114662993972        1.34928738586882       -0.60911168828523
C            3.83148234290769        0.80966082039490       -0.37181830500249
C            2.66833429717297        0.11535407666020       -0.05487753354375
C            2.66734153308043       -1.20365274402687        0.54395676357360
N            3.80395178812788       -1.89383836313523        0.84540483704196
C            1.36166664463169       -1.61114628781705        0.65495443583704
C            0.50725006968219       -0.56103439664007        0.20852918204851
C           -0.85882717822224       -0.67687176536177        0.01604086286597
C           -1.52972223161033       -1.94732522907861       -0.35036081846264
N           -0.90599563081203       -3.12341634859785       -0.54966508531281
N           -2.80677629500888       -1.77903033596112       -0.57817980000288
C           -3.06185869544761       -0.45112926163794       -0.33233968783095
N           -4.31610299877572        0.02468785959315       -0.48784237511608
C           -1.90623249119224        0.27117124391710       -0.01440429437197
C           -1.93151789041873        1.64016880359037        0.49127987147113
N           -3.04063505212823        1.90354559595563        1.29973392085057
C           -1.10978885510768        2.65408307158177        0.15184512984465
C            0.04582790947953        2.66996475397853       -0.69670931524449
C            1.06489320195032        1.79784272263504       -0.84563895637930
C            1.35711553765413        0.54823738048659       -0.20798993725875
H            4.66232902311473       -1.36944552845732        0.89300075471577
H            3.72527581450048       -2.68001533128681        1.46843903789373
H            1.03229461890612       -2.51598858293465        1.13229253303280
H           -1.41544861357927       -3.81647378975487       -1.07327336515262
H            0.09936701777849       -3.11228257887026       -0.61984327763263
H           -5.06314923502432       -0.64137533263431       -0.56944558479255
H           -4.50953086431019        0.96594314693781       -0.19095300222027
H           -3.34026562779764        1.12438467858429        1.86732087912548
H           -2.98495574775671        2.76974998237647        1.81637464118344
H           -1.37258552201373        3.63392317654713        0.54068423781093
H            0.17210470357047        3.61622039455970       -1.21431231169345
H            1.88486273240777        2.13949529432725       -1.47031627249178
