26
 energy: -47.993910158799 gnorm: 0.000715895712 xtb: 6.6.1 (8d0f1dd)
N           -4.44129235898475        0.95231169322331       -1.10506855230211
C           -3.51877562124485        0.46555464189684       -0.62565275401353
C           -2.37855672321798       -0.14060300019095       -0.05246027721712
C           -2.42781441127316       -1.50472330265161        0.10545730762131
N           -1.68275272612543       -2.26226737840513        0.89266511365157
C           -0.44544234930833       -2.45711522338544        1.08424864914180
C            0.64101521604533       -1.95477130853567        0.29786901540759
C            1.83107360992391       -2.61796859508086        0.05014933671751
N            2.72291362175413       -1.88104405696133       -0.65134008269816
C            2.20871534389626       -0.67654913504416       -0.76082241186645
N            2.74386985049594        0.24263202139221       -1.56241569635739
C            0.85399987648429       -0.59313435773552       -0.12746913662411
C            0.14743476881045        0.55097875614539        0.13238751146769
C            0.74028259194400        1.87187823407621        0.29822423421698
C            2.09618073456134        2.17252110691969        0.43743697726237
N            3.20513222268190        2.45857909228039        0.55225372067031
C           -0.26808280506245        2.77983378772380        0.53180850429935
C           -1.51304672543182        2.11213776523383        0.45313307980847
C           -1.30803946770438        0.76518943412205        0.26987126905633
H           -3.28428088542521       -2.03123486012934       -0.30588284840099
H           -0.19451694460077       -3.14010302550157        1.89173509588614
H            2.07386527688056       -3.62792204039348        0.32649776678993
H            2.45675204656956        1.20621014098599       -1.52792160711829
H            3.64343881311823        0.02348133594388       -1.95957317823589
H           -0.12990954233809        3.82138896884966        0.75808982861226
H           -2.47191787064685        2.58792179012136        0.54335329432452
