30
 energy: -54.908077946267 gnorm: 0.000450324908 xtb: 6.6.1 (8d0f1dd)
N           -4.68139062152143       -2.35671718680043       -0.30544590694806
C           -3.70848253054743       -1.75110918060698       -0.20906171292121
C           -2.57205594900807       -0.95191678472760       -0.07166853193217
C           -1.26861447565155       -1.24968723640707       -0.43643597550114
C           -0.43116403636285       -0.14283085181527       -0.16615597095991
C            0.95762090324055       -0.24965970960162       -0.17924897800351
C            1.68728204965859       -1.44845574198556       -0.22086473811430
C            1.27449316214963       -2.76210168675969       -0.40588277938940
N            1.05552866453195       -3.88500730723576       -0.55252318192590
C            3.06050742123055       -1.16389501360539        0.08671555435403
N            4.00660190117742       -2.10615257995296        0.18369094285323
C            3.21769910981980        0.21150907827606        0.25673611117701
C            1.99455312923486        0.83042475285944        0.02017722138269
N            1.88769550710513        2.10577997722980       -0.23202022357637
C            0.87607486664801        2.92963542197903       -0.34068106222590
N            0.99451817845175        3.90784484223691       -1.26755016110980
N           -0.14304741710268        3.06610834405731        0.50981090775736
C           -1.01722932912244        2.19002866596307        0.88498997928916
C           -1.29823032794259        0.90530155268657        0.40030042445547
C           -2.59208263276033        0.35846122930179        0.49414553077993
N           -3.71148311950489        0.93588754822139        0.98963084124171
H           -0.94839347904796       -2.17865310589880       -0.86645087683736
H            3.76716124478833       -3.07092672916214        0.02705470185212
H            4.94164076329801       -1.86780711314268        0.46171398106334
H            4.13955689791299        0.72242098903265        0.45198085178702
H            1.85980230655905        3.98961815918490       -1.77152030976845
H            0.37621956739181        4.69799500151681       -1.21863062859718
H           -1.71597572462535        2.58730288503325        1.62034864927978
H           -4.58982434193068        0.46151704475193        0.87584532344132
H           -3.71755764226840        1.89879921157057        1.26924813659416
