33
 energy: -63.654203309812 gnorm: 0.000507383231 xtb: 6.6.1 (8d0f1dd)
N            4.44693600507927       -2.78787195118065        0.13065253695979
C            3.32026052733298       -2.56581438279868        0.15300127569794
C            1.95056231031624       -2.28815498613453        0.17075787745519
C            0.92020952953683       -3.17803767777985        0.51627375170119
C           -0.32081230406389       -2.55813883276625        0.36690758500184
C           -1.51467276713036       -3.18453846060266        0.72113510208831
N           -2.48455621836102       -3.73151516343335        1.01653894925291
C           -0.10929016404254       -1.18924528134944        0.01018488180984
C           -0.99818054236947       -0.14372064869383       -0.06585967523925
C           -2.43037131347311       -0.25839827587591       -0.35699440266390
N           -3.04221707324091       -1.32240819307028       -0.91091451817466
C           -3.00129935770160        0.99985373798030       -0.20717096659102
C           -4.33655248084613        1.32348002801195       -0.45371376606786
N           -5.44000053189206        1.57162193651357       -0.65917911751881
C           -1.98993883879995        1.89576758712923        0.23263724369712
C           -0.76612340940634        1.25960921684369        0.26456066109343
C            0.38962444815435        1.96539920439130        0.78741331689654
N            0.13521049568990        2.78445817084545        1.82786826559986
C            1.64393600783741        2.02321326585976        0.19523373476453
C            2.55594194959290        3.00818842883342        0.59621078237605
N            3.29960984913445        3.83133685188377        0.90227505833276
C            2.06335995493667        1.16485306850874       -0.89675112552689
N            2.68053661184509        1.72303123036255       -1.95095507871493
N            1.98328008072147       -0.11857244282761       -0.83523387040873
C            1.36623657024681       -1.05682299102483       -0.17529993578989
H            1.06449637139087       -4.18918294519363        0.85349585253783
H           -2.66897161484397       -2.25041354698121       -0.79441417862782
H           -4.03744478615071       -1.25107308221427       -1.05475442622991
H           -2.17082062508115        2.93337122802752        0.45115447961336
H            0.84775840743921        3.41123004162141        2.16514155947246
H           -0.78875815780374        2.83547855914261        2.21894372766194
H            3.11361946335536        1.12536698764596       -2.63542880028910
H            2.93935557169700        2.69463305852542       -1.92243924407035
