27
 energy: -47.709900570749 gnorm: 0.000565753667 xtb: 6.6.1 (8d0f1dd)
N            2.86765658859195       -4.01237401296237       -0.30516709822713
C            2.39598811796747       -2.98022270728201       -0.13052506160146
C            1.80261460688158       -1.71539002753405        0.07745025513289
C            2.67813167620414       -0.74466080312529        0.67328324076517
N            2.71475519604465        0.51828461779728        0.54640791618275
C            1.98790555433591        1.51554625646977        0.08588585506807
C            2.54022061650031        2.69903789995071       -0.34905650197129
C            1.51314676687293        3.66759882140408       -0.47251679613179
C            0.30736180466981        3.11775881641581       -0.12673667321487
C            0.49166417593191        1.72833420967875        0.12773617385116
C           -0.52054696726814        0.80138246970827        0.12526818667946
C           -1.89321057904708        1.22362411738633        0.13109231164016
C           -2.71144211150725        0.12817099869224        0.05378094495904
C           -4.11047529346777        0.09729841842652        0.07124752260523
N           -5.25676403634594        0.02460454703586        0.07152979372508
C           -1.88872055062843       -1.04954868329647       -0.06735057920819
N           -2.41851514347248       -2.28835214887694       -0.14234181198872
C           -0.53956394498349       -0.66712838337271       -0.01069821147366
C            0.45869929471882       -1.63847526414441       -0.19928357542665
H            3.50023048662161       -1.16342340600309        1.25233695366941
H            3.58452256926732        2.86392486913238       -0.53009155128630
H            1.67239681553163        4.68726602174798       -0.77521691791432
H           -0.62867278801837        3.63989177498229       -0.10387625745580
H           -2.22783982938593        2.23707926865839        0.23046113474171
H           -3.41211402737055       -2.38511121130661       -0.26140202142895
H           -1.84123608346348       -3.09133001049866       -0.31843265780693
H            0.05863779311958       -2.58469807018401       -0.55842942228430
