29
 energy: -55.967688000643 gnorm: 0.000885787832 xtb: 6.6.1 (8d0f1dd)
N           -4.19991610683176       -3.38155141946730       -0.13512827365605
C           -3.31498530885263       -2.66170054639050       -0.00585649501836
C           -2.24104019485147       -1.75826004159416        0.13867095219727
C           -1.08930729997702       -2.25628790439706        0.79113085470588
N            0.12564603970220       -1.89507590241621        0.62757812540591
C            0.91208128635451       -0.95732238911405        0.21722551305321
C            2.22688998685503       -1.17479801590391       -0.22238033222964
C            2.81244119138422       -2.39110143638964       -0.56874521210629
N            3.33867583937182       -3.36711386956865       -0.87320845534688
C            2.92465105141136        0.06588699718450       -0.16781861857685
N            4.21518757864365        0.23588662294652       -0.45194698415983
C            2.02377137043919        1.08659217980591        0.23099507230287
C            2.44722917787614        2.40658433763349        0.36666447887576
N            2.89763502291122        3.46109586355655        0.46929419349105
C            0.73201981074141        0.52582430603977        0.35485346337497
C           -0.47376234311008        1.19407035088627        0.30987989844527
C           -0.55954822040181        2.61839931891897        0.34079842071956
N           -1.76835612776023        3.07478748059006        0.11246905479269
C           -2.55658382617143        1.99938127423689       -0.13061999607919
N           -3.85395309025130        2.20236459861947       -0.39601503873151
C           -1.84873726608687        0.76471634982559       -0.00674399056302
C           -2.50656081464742       -0.43639690486341       -0.21583304808451
H           -1.22132560873013       -3.11907832210281        1.44063800507871
H            4.64129967462720        1.14155992124983       -0.34142955120065
H            4.77106669693137       -0.54080288088119       -0.76968472465470
H            0.24781288729779        3.29702090065941        0.54006205389368
H           -4.48210389250960        1.45549775741244       -0.63047997817617
H           -4.17197925426838        3.15425477650835       -0.44471339460978
H           -3.51207709729457       -0.31578862278546       -0.61201318324346
