31
 energy: -58.623162467052 gnorm: 0.000684570076 xtb: 6.6.1 (8d0f1dd)
N            4.67818841788864        0.32095253125072       -0.92721057412249
C            3.65426490297444        0.80429172296410       -0.70227296605302
C            2.43495768480753        1.39417604358910       -0.40222623473767
C            2.13525199012158        2.74118083724045       -0.59349774886636
N            0.87868965602961        3.06068665956778       -0.24194367061670
C            0.28804417507608        1.93621661988770        0.13079360874983
N           -0.84021751063414        1.94559928176232        0.82172819992960
C           -1.93129657559529        1.28510257584264        0.80581338013032
N           -2.80872008232716        1.44826868077764        1.81839420765318
C           -2.35457065392445        0.37794485684333       -0.27667315568007
C           -3.60854581239008        0.63023428979764       -0.83933288641651
N           -4.65058481566661        0.82929680237142       -1.28863625915756
C           -1.63910980691344       -0.73747208025726       -0.63651704095315
N           -2.18511616424251       -1.61566052490230       -1.53283070750032
C           -0.40665744486462       -1.18808751339596       -0.01487060980830
C           -0.16974662595894       -2.54819771331709        0.27093303540285
N           -1.03269263097539       -3.57963503511289        0.18121729954395
N            1.10801307490175       -2.79123002077241        0.67656543533580
C            1.75158609132850       -1.64933265858754        0.58537346816435
N            3.00387950047258       -1.51317260971299        1.01638118451923
C            0.85225834044442       -0.54308687515247        0.16280125843345
C            1.20498002600604        0.77740232733630        0.00193444650315
H            2.79890436555944        3.49438960263658       -0.97889925962963
H           -2.61483896371755        2.16255283138328        2.50073026390048
H           -3.76011639429071        1.14357185487775        1.70097982627669
H           -1.57073798289407       -2.27385365602127       -1.98212947538435
H           -2.97939005269542       -1.29848980614838       -2.06724657651689
H           -2.01858539689053       -3.39415052476772        0.10807176762908
H           -0.73024808938316       -4.45095709501784        0.58231498429839
H            3.56423236508801       -0.72093191616563        0.73937509498115
H            3.47791382776652       -2.35671912089703        1.29588017909140
