27
 energy: -46.943069294923 gnorm: 0.000453434835 xtb: 6.6.1 (8d0f1dd)
N            3.21828076676330       -2.48451651026068       -0.21162099387775
C            2.59392216416663       -1.51533015871356       -0.19529923862570
C            1.96580652948271       -0.27545131716836       -0.15184255474872
C            2.69560646053794        0.90489235104974        0.18941497845061
N            4.00435938083622        0.91907746143726        0.47425414179549
C            1.82683672086726        2.00449287522077        0.17876049897889
C            0.56276985123679        1.56886515437288       -0.18948619627366
N           -0.37026822884444        2.36836021203887       -0.64900727067509
C           -1.65264965319382        2.28170090423671       -0.78824290933332
N           -2.51964784701471        1.67667828404768       -0.01487290050592
C           -2.50935063845794        0.50305639440636        0.54952686099982
N           -3.32855552316083        0.32544173133821        1.60603621256268
C           -1.84576416867601       -0.66433426749672        0.03074563909407
C           -2.43230808098658       -1.91414367483781       -0.00899397678207
C           -1.48818112809047       -2.85505512838358       -0.48113005827623
C           -0.29098396303873       -2.21792602028712       -0.65835971804345
C           -0.45118378416000       -0.82745149736950       -0.38024605444652
C            0.60886854964047        0.06306583871567       -0.29504930430989
H            4.53818105313350        0.06838325303393        0.41211125364543
H            4.46276235208588        1.77344917616008        0.73574366455751
H            2.10535866766047        3.02574209751746        0.35059453452009
H           -2.08632197982144        2.97207605587112       -1.50903347437175
H           -3.92280988896385        1.08317115146378        1.89529182524431
H           -3.50458365188825       -0.60207848045502        1.94832074366834
H           -3.45879066726423       -2.13602542659150        0.22656969722305
H           -1.68809494148063       -3.89644048296884       -0.65486325577450
H            0.62327346483096       -2.66398282257724       -0.99811751469640
