33
 energy: -58.055829029174 gnorm: 0.000934312061 xtb: 6.6.1 (8d0f1dd)
N            3.54939264680329       -3.17072398054829       -0.39645075953412
C            3.00846815289092       -2.15665555490368       -0.32022874085019
C            2.41335413728255       -0.90267473907984       -0.25411231792064
C            3.08520381677839        0.32850082855379       -0.56374206493613
N            4.35602674792499        0.39461461505154       -0.99186802374336
C            2.21787105037548        1.39471256237832       -0.33338487030834
C            0.95716138070386        0.89308144140398        0.01402790078365
C           -0.21724148812100        1.60961222042236        0.16526846685101
C           -0.25086348847294        3.02872779734910        0.42962809655212
N            0.83970882681083        3.79516436386439        0.78017996120241
C           -1.55089629947832        3.47087772332410        0.31748845345860
C           -2.35039000096078        2.38752985416442       -0.07597235529449
C           -1.59288471291090        1.22073810033496       -0.12948152294371
C           -2.17604403467322       -0.00595309141704       -0.58381762296160
N           -3.16773159170890        0.12719637020459       -1.49891110498869
C           -1.95929608240847       -1.28921557675362       -0.07275617463592
C           -2.87913230466155       -2.29396956968151       -0.39293358197701
N           -3.63898372943666       -3.12658682310441       -0.63490539155009
C           -0.93768472535716       -1.67708195524805        0.87067729074395
N           -1.30910323006186       -2.49270729422435        1.88623508004163
N            0.32368972723718       -1.42763759400906        0.75829890554484
C            1.11062678016738       -0.59134221230756        0.13396596922119
H            4.76532587249283        1.27759032433272       -1.23999199653486
H            4.85300693539980       -0.45363410344426       -1.20373681287879
H            2.44511631533425        2.41971725434229       -0.55365943777789
H            1.59058175436200        3.29462934678174        1.23156764387574
H            0.60350113994202        4.66729674170021        1.23010531643829
H           -1.89886314236311        4.46978627161250        0.50584852671988
H           -3.41489393100731        2.45291766969252       -0.22279217188549
H           -3.44933723998371        1.04612125513334       -1.78953389502649
H           -3.76190508444684       -0.65712973149866       -1.71235874775955
H           -0.58228935140584       -2.94113072954709        2.41886793502847
H           -2.21838436344878       -2.92269634658272        1.86219929634190
