35
 energy: -62.292402444426 gnorm: 0.000835731758 xtb: 6.6.1 (8d0f1dd)
N            5.01506386201173       -1.11828612431470       -0.86106107888348
C            3.95377276642587       -0.81741729236581       -0.52637120460143
C            2.65415123819364       -0.45271561648203       -0.12753626029788
C            2.00124909012281       -1.44987259823074        0.64647973236473
N            2.81948003781879       -2.34461901776778        1.26128913511949
C            0.63570131000707       -1.74694905841626        0.73121637022956
C           -0.52032894477687       -1.15228476730759        0.26228728912668
C           -1.69658658583698       -1.92483870528366        0.10148781332848
C           -1.79877097629577       -3.30371675838335        0.25336579781229
N           -1.90817970725800       -4.44329194658779        0.38212551313555
C           -2.75384106365272       -1.08676389886187       -0.31586846988498
N           -3.99367226334878       -1.47891183173290       -0.64569330805225
C           -2.27833805566386        0.24640456566505       -0.31248322070258
C           -3.05722419756038        1.30109558854987       -0.77584205507263
N           -3.75603657469618        2.12792266005363       -1.17352095866564
C           -0.90622119109524        0.25760107987762        0.05216849171208
C           -0.16582835115018        1.39393541394504        0.33901832884052
C           -0.73170226477849        2.64878483328285        0.76981263596583
N           -1.94442935388446        2.82552745948043        1.37398428819941
C            0.25910447511403        3.61671992151655        0.72622521002208
C            1.42543179889366        3.03747024241376        0.22615195672797
C            1.24441350072966        1.66441915864823        0.04911483774439
C            2.27877036327548        0.86268750525132       -0.49251864545694
N            3.12260379001788        1.50363169728074       -1.33571408307908
H            3.81394480329625       -2.30364397111332        1.11244076513645
H            2.43661843925133       -3.19638241665914        1.63424436390876
H            0.45524249069150       -2.73915409967367        1.13873914270201
H           -4.64978104258902       -0.81106678542834       -1.01307541437369
H           -4.21631249041727       -2.45855515017308       -0.68262743656503
H           -2.25161682996538        3.77960761038366        1.46634803366952
H           -2.67849868929646        2.16371450905065        1.19003796245529
H            0.14688900794383        4.63988742577824        1.03203959077032
H            2.35266849425525        3.56923563342880        0.10167627638118
H            2.94734948682884        2.46388629532687       -1.57080197227687
H            3.99351409458036        1.08293640625050       -1.61485099193931
