28
 energy: -46.634164548291 gnorm: 0.000598140865 xtb: 6.6.1 (8d0f1dd)
N            4.49188571522520       -0.18305429760546        0.06565168423327
C            3.36095985796312        0.03126758297237        0.04427822256347
C            1.96346658768826        0.24857867006329        0.01814562063038
C            1.28617965420722       -0.96238507346295        0.04922582129136
C           -0.02228795208559       -1.41893197798148        0.02114373967719
C           -0.29918669877798       -2.80500547454691        0.02633810059365
N            0.58319452315403       -3.83659174585826        0.10754014449552
C           -1.70576026141358       -2.99953398233927       -0.00925771656711
C           -2.31991849978351       -1.78227869025822       -0.03447069550103
C           -1.33511821537754       -0.74657459305840       -0.01325640377062
C           -1.73469773037585        0.56428121253898       -0.00126447674626
N           -3.07784673180346        0.81260029897408        0.00084928964511
C           -3.23191352181252        2.12086821979144        0.02631657275225
C           -2.01443694232651        2.81593383374384        0.03320135521133
C           -1.00047937345989        1.86387305915590        0.01351188814991
C            0.33933026350036        2.24626604028333       -0.01341443712828
C            1.58235615966664        1.63068403318806       -0.03122376828863
N            2.63879242131783        2.49457909546364       -0.11034435797897
H            1.99764038782746       -1.78536601710550        0.10166317519824
H            0.23443228415383       -4.75871754135327       -0.08907978057348
H            1.55863441957904       -3.67931131489732       -0.08099454321476
H           -2.18442126783443       -3.96241181603193       -0.01546907498485
H           -3.37127704367665       -1.57714246552577       -0.06393150894064
H           -4.21975741062725        2.54983888076434        0.03868596940768
H           -1.89224770318145        3.88210125079887        0.04961141310783
H            0.42852972755100        3.33093714785806       -0.03072299305083
H            3.58379273640027        2.15624625464975       -0.05700608876541
H            2.47996175950188        3.48526380817898       -0.07480908904562
