27
 energy: -52.511512409495 gnorm: 0.000449540638 xtb: 6.6.1 (8d0f1dd)
N            3.90220748493770        1.12253599012319        1.51950913105776
C            2.95290307419147        1.14164391713606        0.87580428743186
C            1.74122881081155        1.20348457650166        0.14992122224445
C            1.24986663775865        2.46093542124804       -0.11167377158604
N            0.33237991303905        2.79460117380207       -1.00036527096273
C           -0.87010026308810        2.49058171489909       -1.24967295344642
C           -1.72068883485174        1.66761654739687       -0.43951129292167
C           -3.08769891032320        1.82543750200287       -0.26377434265493
N           -3.64871864439282        0.84984773041123        0.48279776911632
C           -2.70936852049948       -0.04506007730967        0.69815722722173
N           -2.87559899518520       -1.04118491697238        1.56270377170087
C           -1.40311483222916        0.36933345290006        0.08946250842414
C           -0.29173528125177       -0.42241841207779       -0.06840490275773
C           -0.32632010851856       -1.87672636296567       -0.16621704873271
C           -1.46324903656292       -2.68013516112432       -0.29870690401065
N           -2.37816545556595       -3.36825443429199       -0.40632966806874
C            0.95192435718778       -2.34359376584229       -0.34126660688686
C            1.85172819388618       -1.23715039811009       -0.28418762070245
C            3.24069613045531       -1.36568359324200       -0.42402379967912
N            4.36590523277025       -1.51889509013362       -0.58924104356384
C            1.12822599900507       -0.05745429029183       -0.16424713932532
H            1.77813222503833        3.31172196814184        0.30769935878976
H           -1.30872379793077        2.94830218881704       -2.13173166800031
H           -3.69259095580749        2.63613808371321       -0.62686139560750
H           -3.80117664728493       -1.15935999090612        1.94400446397694
H           -2.22716845913398       -1.80784553605428        1.62657454503348
H            1.23948835294527       -3.36373826427152       -0.51728495609046
