24
 energy: -43.763745007424 gnorm: 0.000612948712 xtb: 6.6.1 (8d0f1dd)
N            4.95415430916507        0.25897478380997       -0.01646344010559
C            3.81664139873439        0.10475126250499       -0.00247517852885
C            2.41583811063472       -0.07983521917832        0.00805908333850
C            1.98017838649460       -1.35588186973494        0.40771158252599
N            0.89352855872807       -1.97150746897603        0.09635677408769
C           -0.35465528268182       -1.81610429234343       -0.13193984742629
N           -1.15959994813587       -2.77983101263753       -0.59370084064687
C           -2.39413073436460       -2.32969491406387       -0.36824788375310
N           -2.51972278856473       -1.10958113273981        0.12999810726476
C           -1.24559064884823       -0.63848633648699        0.21409015874347
C           -0.93003442677390        0.68885461335699        0.18105549290786
C           -1.98033794297734        1.68906500389044        0.19588887021484
N           -3.26272881462741        1.39271529716581        0.40950294201602
C           -1.40368088243081        2.94493190707611       -0.02015175255777
C           -0.04319782741628        2.77686642226942       -0.20025398179325
C            0.33170261108764        1.42123595976492       -0.07590413981269
C            1.65953756250613        1.07474270079130       -0.23909670916860
H            2.69791938760052       -1.97295290306647        0.94456951358653
H           -3.25438991418238       -2.93920812506441       -0.58172662383133
H           -3.97232291409579        2.09389373703184        0.28353482637554
H           -3.48419528978880        0.39391357236645        0.40608116427233
H           -1.93533347187707        3.87815784789384       -0.03476207742930
H            0.65295644089332        3.57089078175882       -0.40412142595954
H            2.28291377201943        1.93029929821028       -0.48768838452033
