26
 energy: -47.204883118659 gnorm: 0.000919409932 xtb: 6.6.1 (8d0f1dd)
N            3.80177988629445       -0.82198075545261        1.07125441114909
C            2.97487675836487       -0.10130446014554        0.71704981173757
C            2.00676840492428        0.79876482734941        0.28413626887501
C            2.18737117159001        2.17910769873290        0.24564761962770
N            1.08363776679639        2.82886650849563       -0.12884570530206
C            0.09520066566221        1.94290933677736       -0.24859550887430
C           -1.11683716606380        2.38717929928711       -0.78997701412616
C           -2.36772315601181        1.80324376484231       -0.78532945101875
N           -2.84239211531671        0.87880952096135        0.01139099728612
C           -2.41193345890960       -0.20369315252958        0.56502178637905
N           -3.06139912869101       -0.67264972042025        1.64424840838042
C           -1.36490865281394       -1.04008943220015        0.01397215902800
C           -1.41258098669210       -2.40489268557945       -0.16194650296662
N           -0.23319899120809       -2.92399057964932       -0.58723923917591
C            0.63867526106389       -1.93965040005288       -0.58132172997639
N            1.86520486314201       -2.09665700169457       -1.10653139302528
C            0.00816567959302       -0.65206195870872       -0.19750302846599
C            0.62359062452852        0.56367632098859       -0.00737911600258
H            3.08702354160067        2.71695304316152        0.48715602440276
H           -1.03965592150601        3.35834689004042       -1.26137006307909
H           -3.13570791569801        2.27003542512675       -1.39572675092564
H           -2.83766351962876       -1.57967321564794        2.01239789936825
H           -3.82844386186056       -0.15062101661117        2.03294947741780
H           -2.26372163532052       -3.05067277401228       -0.03863930397524
H            2.10375064959648       -3.04377498731966       -1.35447564702072
H            2.62056494126417       -1.48431716583919       -0.84219160081696
