30
 energy: -54.888934082543 gnorm: 0.000869029237 xtb: 6.6.1 (8d0f1dd)
N            1.95081793560838       -3.85067367938908        0.48047371377409
C            1.65393479415194       -2.76193637418110        0.26502641842368
C            1.35989781148005       -1.39128178930701        0.03421244840266
C            2.51305427588500       -0.56044164502080       -0.13641060740609
N            3.69447432605136       -1.20145607317085        0.06078652163703
C            2.63079020899732        0.74426788979424       -0.60645177932883
C            1.81700847773356        1.87726680499952       -0.67131420022931
N            2.36201694227288        2.93901396682900       -1.31090857276755
C            0.56755516645144        2.13869352145494       -0.05250109077055
C            0.19444736887682        3.41846583815880        0.37280522844438
N           -1.03609435232833        3.44734798932650        0.90387101264755
C           -1.53850512622495        2.23389212504359        0.76362867717002
C           -0.60341280724393        1.32487616868321        0.20866607190999
C           -0.90185879465585       -0.01483960440785       -0.03226224003278
C           -2.18896797310617       -0.55479941141041       -0.08113892819183
C           -3.44188066576266        0.04861707693494       -0.10575865743590
N           -4.52492573526188        0.43712362970754       -0.14803901601701
C           -2.02875194804722       -1.97835074962903       -0.18299275288234
N           -3.01406701923050       -2.86819850221630       -0.29103960340809
N           -0.74562870122461       -2.33166967202231       -0.16185316986770
C           -0.01067078423917       -1.20479637052623       -0.09200447718037
H            3.71319288568290       -2.18181023785416        0.28530383443028
H            4.56288205813560       -0.72741926602446       -0.10956049516380
H            3.64314515923824        0.95805760887144       -0.94374294774518
H            1.85819075451265        3.80670412543409       -1.35004396776399
H            3.30415123372148        2.91018137435111       -1.65920896331710
H            0.79926635443249        4.30837060009994        0.40034796236801
H           -2.52641501282633        2.00171933176601        1.11351591169251
H           -2.78335844210783       -3.84479345865091       -0.34857616762376
H           -3.97326280727375       -2.56674176714391       -0.29543241916571
