29
 energy: -45.552835048891 gnorm: 0.000716327452 xtb: 6.6.1 (8d0f1dd)
N           -0.15714241350639        3.21847641250298       -0.30397797405738
C            0.61247951087188        2.09611885516741       -0.19948877613173
C            1.96488721056950        2.01777584295642       -0.33093042858444
C            2.34865450823960        0.64404481451640       -0.19362676393814
N            3.62685953702435        0.20041534907555       -0.27196652566331
C            1.20772348463849       -0.14495838383482       -0.07535555463663
C            1.23056954869643       -1.55066304551501        0.29555932590590
N            2.24164940308118       -1.90484143581779        1.18159211043970
N            0.54074814503960       -2.51409751061111       -0.17454628546023
C           -0.50215388598256       -2.54760886998014       -1.02599212331143
C           -1.66841089863496       -1.86357126652267       -0.98390771154957
C           -2.04992197828970       -0.73218162682663       -0.19263637508231
C           -3.35798258391112       -0.43503143440969        0.08747351123787
C           -3.43699293604240        0.83661471381499        0.72887152484914
C           -2.19539253136938        1.39229773414361        0.75186306779913
C           -1.25659038442582        0.45344755292048        0.19373788723325
C            0.07118491556454        0.72616941967977       -0.02787829927949
H           -1.13193014085145        3.07470000727166       -0.51578507532023
H            0.27522572238090        4.01374996117592       -0.74699246666398
H            2.64451982429056        2.83085582085615       -0.50661579916811
H            3.80576574704627       -0.76486203974591       -0.04991475883714
H            4.38006325595662        0.86038705134083       -0.19766378588999
H            2.45167415536235       -1.22207003807135        1.89407118609168
H            2.14814605671619       -2.84849580058316        1.53014465292000
H           -0.42946804733536       -3.38537214456112       -1.71462990082026
H           -2.46721796841513       -2.24805695646632       -1.60834420125192
H           -4.19975380201919       -1.07082505029130       -0.12077371847956
H           -4.33759178724242        1.26772427904738        1.13033779576245
H           -1.91942394455251        2.30379766026749        1.24928304798671
