32
 energy: -59.117959468090 gnorm: 0.000830315895 xtb: 6.6.1 (8d0f1dd)
N            2.61019821844920       -3.92299386006422       -1.10620629794412
C            2.07063644536862       -2.97290881419476       -0.74870549121624
C            1.39770670354940       -1.81524752024521       -0.30194985034343
C            0.04711252173275       -1.81727638325370       -0.49248411962176
C           -0.96991042058703       -0.89650710601479       -0.15212143093645
C           -2.30126263535308       -1.30611055745355        0.02636747737582
N           -2.77575092811841       -2.56352382962715        0.08084819002348
C           -3.13129884818669       -0.15077145566498        0.23517124562996
C           -4.49262663372215       -0.18597569024666        0.52904035081739
N           -5.61751855856375       -0.22440495866970        0.76754543439017
C           -2.33747357801231        0.97835871743133        0.10817876322268
N           -2.72784913827461        2.25026820555522        0.28070608597842
C           -0.96656376925325        0.55012149647622       -0.18103931733488
C            0.00906259638366        1.42160719357350       -0.59520663256010
C           -0.19742987102589        2.71851416208694       -1.16805757203814
C            1.03713949499607        3.27490347157935       -1.32396383926638
N            2.01582077545186        2.50586053265132       -0.75917721669887
C            1.47687604062467        1.37744442278143       -0.37977365796692
C            2.25806849312473        0.47594735842398        0.41605474270288
C            3.26246680217779        1.12581931455620        1.16811926507225
N            4.07319883200653        1.60695497891124        1.82497765985372
C            2.25125791788294       -0.90315139436749        0.46158480950413
N            3.15023173083759       -1.53723395657968        1.25134220119323
H           -0.32623239917230       -2.73620081855017       -0.94119798218459
H           -2.18343015868064       -3.34621010099740       -0.13566063716179
H           -3.76963062011669       -2.71138405714404        0.12820942254434
H           -2.03478799933007        2.97859084000334        0.32710648555848
H           -3.66023081337315        2.43742056627794        0.60906292557182
H           -1.11854926280966        3.08513786267233       -1.57931606365043
H            1.30170316810838        4.19739194998603       -1.80662719563009
H            3.85903836423563       -0.99616574062944        1.72145077889367
H            3.28026833454949       -2.53195569506442        1.16844642462174
