30
 energy: -50.084661034001 gnorm: 0.000454227820 xtb: 6.6.1 (8d0f1dd)
N           -3.57446252976956       -2.42385761006883        1.19721167098403
C           -2.57337561059561       -2.03660304456418        0.78478818506676
C           -1.33761043936289       -1.56612937163115        0.29495597434709
C           -0.30240958685379       -2.48572248636909        0.34903970053385
N            0.83708580045215       -2.50988097379848       -0.29362479127565
C            1.72626497363064       -1.64631562586808       -0.67398206753581
N            2.58321721549223       -2.05600923832131       -1.64120728297718
C            1.99964836812625       -0.38039451834402       -0.05689790118244
C            3.26925372938352        0.09912387734837        0.20026897984655
C            3.18587152184973        1.40578945974426        0.72362299295076
C            1.86818834013117        1.79699143498280        0.70808570573206
N            1.37829388687459        3.01311033623848        1.13976979701060
C            1.05797997271393        0.69761003613920        0.21737868292763
C           -0.27687586615372        0.81784170781657       -0.12165848726790
C           -0.90576957320174        2.04578740581277       -0.40727082447516
C           -2.24076222284265        1.81716859864712       -0.70026084453404
N           -3.16231806939596        2.73314603936375       -1.06915681545338
C           -2.51702156254003        0.42675188441917       -0.50789640484466
C           -1.35639076470515       -0.22226377867712       -0.18690344160466
H           -0.51525860575136       -3.41913950275331        0.86647598619115
H            2.53019697762226       -3.00596971021514       -1.96630429007722
H            3.40495908899618       -1.51269536051775       -1.83337456045869
H            4.18488299617246       -0.45435431497347        0.08284701005630
H            4.01643059798347        1.99588730422287        1.06527254674622
H            2.00762784044018        3.51386167039835        1.75039116840759
H            0.42433522330994        2.99272012494012        1.47025518606743
H           -0.39667280478345        2.98145373153794       -0.53375313606077
H           -4.05646753508951        2.42040060655102       -1.40483044922815
H           -2.86452978156897        3.66039248010421       -1.31784629552268
H           -3.48743222196417       -0.02405474046533       -0.60400437106947
