26
 energy: -46.410871138002 gnorm: 0.000761210726 xtb: 6.6.1 (8d0f1dd)
N           -2.53635191161533        1.94797384511023       -0.88569601617116
C           -1.32946339400080        1.59748428468785       -0.32763161397272
C           -0.52081172246947        2.66470824928730        0.03923000050932
C            0.74495540518989        2.68501178462109        0.63576000315608
N            1.77463744146702        1.94140410648679        0.43403077018091
C            2.10015438106651        0.75662462330401        0.02826485638709
N            3.31061974832742        0.42372795777859       -0.41447801536874
C            3.31565498823580       -0.92230773835950       -0.41019986392915
N            2.20340248164987       -1.53071466546018       -0.06804116492430
C            1.30868026752198       -0.50719530340582        0.14536459318962
C           -0.04057710078445       -0.66784930416074        0.08072704117426
C           -0.62123031312906       -2.02438624810545        0.10611437376512
N            0.12626059526798       -3.11603733846065        0.15774153389397
N           -1.93595533191138       -1.99315779962537        0.14098248524446
C           -2.28909627542059       -0.68034717140134        0.04223208768201
N           -3.62436695182767       -0.39473566835136        0.03227333684242
C           -1.19411962004361        0.20255207906980       -0.02988541990385
H           -3.03909612839020        1.23640711744462       -1.38923824604929
H           -2.60836795806713        2.88309394680132       -1.25251058331443
H           -0.99556089777078        3.63644494274012       -0.04465062562996
H            0.96071345894120        3.54623020020298        1.26735839448707
H            4.20228589199155       -1.47052131045890       -0.67635689751786
H            1.13681288235506       -2.95527567018594        0.09435333114020
H           -0.30448766083252       -4.02186395545243        0.20841985141538
H           -3.90396364694950        0.49481988467349        0.41652567449444
H           -4.19127872510218       -1.18351939718202        0.30621070832008
