25
 energy: -48.284516807156 gnorm: 0.000741492616 xtb: 6.6.1 (8d0f1dd)
N            4.50703489087801        1.56157526004824        0.71271929569335
C            3.59825213760418        0.89690473774392        0.48749514407632
C            2.48546772854850        0.08918863388903        0.23500582561726
C            2.44093707305921       -1.30370793971183        0.25913115080598
C            1.15025953344902       -1.76309901677861       -0.06566187662386
C            0.81827852174802       -3.12091108278670       -0.10876214269922
N            0.59607980599041       -4.24756554042663       -0.14495030455452
C            0.30144827057150       -0.65008161935256       -0.24544482303507
C           -1.07869033994388       -0.62322514734736       -0.22559403732600
C           -1.92066704012804       -1.79128135621611       -0.30003002662111
N           -3.18085606257458       -1.50908704200525       -0.11934964520564
C           -3.25565039107232       -0.18229088218883        0.16538255462392
C           -2.02702303372457        0.44470850333219        0.08858842729812
C           -1.81896496132883        1.83929793667947        0.37640758620443
N           -2.55444553565767        2.39144742832735        1.34839572142491
N           -1.10949554893390        2.64427703482721       -0.37664148837146
C           -0.03154588472815        2.42606752229036       -1.06861845130724
N            0.99574779812185        1.71619629175277       -0.70268014536062
C            1.21548191556019        0.55599930873106       -0.19686644512777
H            3.27125050243904       -1.94457031910122        0.49936307124427
H           -1.59565803866554       -2.78750614892170       -0.52915575623909
H           -4.21292702669917        0.26715444363532        0.35956760617521
H           -2.50668023810234        3.38546487135585        1.49845671040252
H           -3.23747439858208        1.84369607688543        1.84248896573056
H            0.12749947157070        3.06977519134160       -1.92909905452571
