31
 energy: -60.209035461087 gnorm: 0.000953438649 xtb: 6.6.1 (8d0f1dd)
N           -1.28935446613769       -5.47724679444813       -0.25074137183418
C           -1.05007827881850       -4.36614846798757       -0.09285245435944
C           -0.76057214107289       -2.99823858944481        0.09673160919259
C           -1.61412523574383       -2.28730977592477        0.97726573687550
N           -1.92000100970785       -1.05270630344914        0.88071764366295
C           -1.60641857489111        0.06056758119030        0.29960004388004
C           -2.54706281397276        1.01158948391375       -0.12097816782494
C           -3.91717060587851        0.82546898319168       -0.30191937407349
N           -5.04926953398310        0.72111637749181       -0.47122995179131
C           -1.87567177570792        2.25212257817084       -0.28495034016604
N           -2.44582415724787        3.39323869552035       -0.66673522351952
C           -0.49646200298045        2.07877955952693        0.01981478789984
C            0.37111944640099        3.15522635498922       -0.12731602704965
N            0.99852782700143        4.11305670749023       -0.26472051037207
C           -0.25471417170877        0.70612243780017        0.27258096301388
C            0.93808749953623        0.00696535047694        0.26326802568366
C            2.23494854269262        0.61634329548966        0.37280036624558
N            2.54913534385872        1.75652792651342        1.00812743415540
C            3.19328073910701       -0.27181318410713       -0.16107668641965
C            4.56685189125256       -0.01693470319462       -0.21480182793869
N            5.68924869213852        0.22486711789390       -0.25085121871063
C            2.53297207951933       -1.42705323049996       -0.58843438367301
C            1.17273659269433       -1.36492547133518       -0.26124883315093
C            0.40783106410682       -2.51219689801242       -0.47664090044376
H           -2.14128080187837       -2.84218603335484        1.74801567873003
H           -1.89914897936846        4.23610549734927       -0.73772465126467
H           -3.42290850064252        3.41270463665635       -0.90817935179937
H            1.84045354139416        2.40518405848331        1.30344233283821
H            3.48905786476242        2.10730342872191        0.91898252249238
H            3.01674079753226       -2.27242252908909       -1.04278974240667
H            0.94081248044630       -3.26129941172079       -1.05584115667229
