26
 energy: -46.420604622040 gnorm: 0.000880663210 xtb: 6.6.1 (8d0f1dd)
N            0.28223379950332        3.75115687278047        0.80197936413043
C            0.25495712371691        2.55090141530486        0.16833334034180
C           -1.04906280063718        2.04865672529467       -0.11883695011206
C           -1.51142354067109        0.76370247071600       -0.13260696337621
N           -2.84183977877366        0.54047954258441       -0.22435337958284
C           -2.98574078626672       -0.76070020456561        0.01716936294249
N           -4.17729458749519       -1.36461445441521        0.05147588151658
N           -1.84557802507403       -1.45963484642417        0.25202398698715
C           -0.86533342568440       -0.57235064154616        0.13706796366994
C            0.46849388521197       -0.96585207727737        0.21683636441236
C            0.83883200777375       -2.30763141786221        0.40429622562184
N            2.13876930297926       -2.52892442128112        0.21101061929571
C            2.67678992357087       -1.35637578643477       -0.15217416818466
N            3.99742812228279       -1.27642490579094       -0.45574389139947
C            1.71608777060518       -0.30003043828834       -0.16246639559754
C            2.00232093495600        0.99741509450926       -0.52964322815011
N            1.42409406119226        2.12560215961538       -0.21640301773718
H           -0.56470213245952        4.17224858403444        1.13695298223848
H            1.16988637815556        4.15296295270301        1.04682227407482
H           -1.83005192407016        2.79741423874781       -0.17520316437445
H           -4.99743447991097       -0.84657238734454       -0.20449974847468
H           -4.21052824860563       -2.35906606523317        0.18062697215564
H            0.17486015601759       -3.10844969264392        0.66757032992702
H            4.55050100777240       -2.07362427186939       -0.18973177497956
H            4.44992667638068       -0.37981635955891       -0.45348560644692
H            2.94167532842993        1.15693469504565       -1.06049097699889
