29
 energy: -55.965569025405 gnorm: 0.000554542229 xtb: 6.6.1 (8d0f1dd)
N            3.66716946766499       -1.96337365982507       -1.33876175748204
C            2.68493011188518       -1.80667679157959       -0.76609194302288
C            1.43744821064749       -1.65128230669594       -0.12076689715274
C            0.73185286419335       -2.81660171292502        0.11669251353350
N           -0.23484371318916       -3.00592371939204        0.97864092172666
C           -1.35798720705085       -2.49078645030602        1.28570176883166
C           -2.07272184908375       -1.53133991102258        0.52469314729452
C           -3.45359834266229       -1.44495713528579        0.42022587674109
N           -3.86518418611263       -0.41324337333832       -0.34039799261633
C           -2.78436230609735        0.28110711268289       -0.65420775947588
N           -2.84791407911817        1.26577396860963       -1.55732749733153
C           -1.55585404679979       -0.32967404641409       -0.10733048043427
C           -0.32861227876268        0.28724800340143        0.01850331149149
C           -0.13168091788186        1.71112915023834        0.03284183340006
C           -1.08492777112556        2.72417725346557        0.10598319940797
N           -1.80527841140533        3.62118871158344        0.16597563046700
C            1.22817001631366        1.98989789637308        0.19374068592575
N            1.80590772261359        3.18808581523668        0.32545385280600
C            1.93549397205865        0.73531431233906        0.20729754285616
C            3.32378391307991        0.68016856353675        0.36343100061651
N            4.45608004838884        0.74987376717743        0.54657334875894
C            1.02480729798073       -0.30738940325015        0.13429512359010
H            1.12208319036633       -3.73500203899892       -0.31321030460821
H           -1.84375643963529       -2.90835549376331        2.16301515534311
H           -4.17244607612757       -2.12698042727661        0.83608955963986
H           -2.08772190155816        1.90803129642075       -1.69735604752432
H           -3.77223668522373        1.55242628965893       -1.83574230533290
H            2.79746537178041        3.25171882929868        0.48572512904415
H            1.24376455146109        4.02208245355039        0.35642536360714
