26
 energy: -47.206999789170 gnorm: 0.000853297160 xtb: 6.6.1 (8d0f1dd)
N            4.58916059270092        1.11114149422907       -0.88995239695379
C            3.58662207419579        0.64780482661438       -0.56465936802547
C            2.40768216504576        0.01708678757852       -0.18964861019606
C            2.26815392151885       -1.40618462273088        0.00466760785770
N            3.25135831722694       -2.29382858103950       -0.15312824167856
N            1.03962230140282       -1.75714723065600        0.36308551085422
C            0.29135557147003       -0.63647359433902        0.36785553774771
C           -1.07669506661425       -0.67371147521397        0.28225753291938
C           -1.78231154645944       -1.91913153029461        0.34325592165369
N           -3.06306424699137       -1.79265277533043        0.12099640596445
C           -3.28495053068868       -0.47068771729497       -0.14397368254146
N           -4.54176646803122       -0.08761827002486       -0.46433926695661
C           -2.10960809208716        0.30768590184082       -0.06360369758825
C           -2.12291030768256        1.67700477875237       -0.36383075001020
C           -1.25403654357568        2.71279751239066       -0.12669584906277
C            0.00825209613695        2.68445619368493        0.50014985063228
N            0.94401494814699        1.80982264180635        0.45001985878234
C            1.17686110726397        0.56671274582206        0.16962130131460
H            3.07241530536017       -3.26273860164686        0.04373042045307
H            4.15676248293610       -1.99576571910167       -0.47213629294070
H           -1.33207068914495       -2.86764591822681        0.56515100375902
H           -4.80514902975307        0.88026885742310       -0.41712647727822
H           -5.25972040387332       -0.77681026335511       -0.31946848794142
H           -3.07423772520245        2.00117755382485       -0.77652739011580
H           -1.63731793819039        3.70733555164785       -0.31647643188500
H            0.29125570048788        3.58475681323896        1.04403984573443
