28
 energy: -51.443879622081 gnorm: 0.000983074493 xtb: 6.6.1 (8d0f1dd)
N           -3.67983516050695       -3.26068940401503        0.09346526017347
C           -2.86108045831641       -2.45517885200900        0.13911420796993
C           -1.87808776860447       -1.44751438985304        0.17917696474645
C           -0.72120237304581       -1.75609928077302        0.91400682495471
N            0.48702973607872       -1.37498978640589        0.68761510075317
C            1.19047880330500       -0.41608200484098        0.19030493698453
C            2.53207367337724       -0.53959121132095       -0.21221093452127
C            3.25284774047622       -1.71039603053829       -0.42796591886698
N            3.89469185008485       -2.64359353960648       -0.63054243948615
C            3.07812379954946        0.77151998215232       -0.30288342573843
N            4.34362484214848        1.04358793403805       -0.63146596145625
C            2.06849281464304        1.71661871134268       -0.01572640279786
C            0.87521923565169        1.05519558345946        0.19565383505100
C           -0.40379185279973        1.60934374900251        0.23517148326696
C           -0.64762044345852        2.99472831314757        0.40902380411261
N           -1.92398819689095        3.30273774325401        0.27680699404756
C           -2.55599841673892        2.17899343743920       -0.08688448339272
C           -1.70793128356105        1.06362707228547       -0.10892154299799
C           -2.20739595447536       -0.22385614093237       -0.45731920809232
N           -3.23984479779235       -0.24603047971261       -1.32108573764366
H           -0.80160015144713       -2.55504589174692        1.64789714718515
H            4.97630288626411        0.29278907846821       -0.85256647545031
H            4.68209871199541        1.98975242966992       -0.63304881788333
H            2.20743030698918        2.78002222610324       -0.04512693935093
H            0.07455047726484        3.73858837134190        0.68769133834674
H           -3.62255538011018        2.19512554689639       -0.22851474434007
H           -3.61979472446275        0.61952346948291       -1.66473870418639
H           -3.76544462041808       -1.09564657333017       -1.45653596358744
