27
 energy: -46.923789555432 gnorm: 0.000780274411 xtb: 6.6.1 (8d0f1dd)
N           -4.54707235632579        0.21459479865373        1.09875869259300
C           -3.47128011877462        0.32935877735520        0.70880192064110
C           -2.14334190906294        0.47028674694026        0.24380401404886
C           -1.67932420759767        1.76023380965767        0.30839638716658
C           -0.47637988017077        2.38227205937579       -0.04016987090773
C            0.80900326714234        1.91499225966140       -0.14408608954009
N            1.80828499697985        2.82012097187405       -0.28717092338072
C            2.91894739005505        2.14054140959871       -0.07761293091076
N            2.78526875297501        0.84095480044658        0.18348768824384
C            1.45388840739734        0.59069035383401        0.10008416260729
C            0.97751800188649       -0.70397525022359        0.14826543283373
C            1.89579824960183       -1.80156982332850        0.26901561865564
N            3.18678425828763       -1.67229644032480        0.60543365016286
C            1.21091673023650       -2.99338721642312       -0.00650480634912
C           -0.09626622031756       -2.69016456761436       -0.31885976140116
C           -0.33448807873107       -1.30044010232856       -0.18779694392337
C           -1.61069895161487       -0.77348603258089       -0.30422537611840
N           -2.57140782292117       -1.52533759936941       -0.89551303243725
H           -2.42904908283772        2.46127125156238        0.66745065320071
H           -0.52959222959016        3.46215540162860       -0.11529528714998
H            3.88867122287718        2.60602785287025       -0.10815858426428
H            3.80600639464762       -2.45608860685023        0.49053606589080
H            3.52595581057144       -0.70594595460728        0.57039956546650
H            1.64288146336355       -3.97684540778374        0.01730345537858
H           -0.83532214698393       -3.43961639783334       -0.54060577608902
H           -3.53863832837627       -1.25743684037621       -0.82238966228979
H           -2.35965582801570       -2.44539664971510       -1.23617545032740
