34
 energy: -61.783255066471 gnorm: 0.000580036504 xtb: 6.6.1 (8d0f1dd)
N           -3.00199147864964        3.84071166243822        0.78195093982266
C           -2.34953412612605        2.93809670253238        0.48185587246405
C           -1.56230944080531        1.84895648188350        0.10091037358145
C           -2.11465088855300        1.02664226059008       -0.97041453808192
N           -2.59056483458835        1.68483644252135       -2.05059038708471
N           -2.26653842641893       -0.24675481613418       -0.92944284125540
C           -1.81492302397290       -1.23750977208114       -0.19580642177745
N           -2.57547634552066       -2.26557358687926        0.11764685341993
C           -1.72861520390958       -3.23711620534678        0.56717180566558
N           -2.23393622279191       -4.40556857609889        0.99332725685877
C           -0.38104282592683       -2.86427055095857        0.49605914020674
C           -0.36970533623552       -1.52724861632548        0.09352674688612
C            0.69301672475250       -0.64258530526480       -0.00784381483835
C            2.04892856457831       -1.07924729279286       -0.20523367533031
N            2.44509975669143       -2.35977814046156       -0.44852948398379
C            2.88457972080868        0.03343361608983       -0.16039888175604
C            4.25221315407603        0.05780931322840       -0.40539237900717
N            5.38249842041603        0.09188437165012       -0.62731575708929
C            2.08047820537905        1.17887424799018        0.13865373375942
N            2.62437106051125        2.42565626360753        0.32485450267887
C            0.73740322657675        0.79635655565830        0.19945139026935
C           -0.28706504480343        1.71133206584286        0.63114329702816
N            0.12188390848596        2.65681589607779        1.52506034397958
H           -2.71627494602804        2.68186033016747       -2.00403042930850
H           -3.12720100287500        1.16325633935302       -2.72389785616033
H           -1.63962017803267       -5.09724176485622        1.41300365242755
H           -3.23095018931996       -4.47558380714271        1.09713834333182
H            0.43987744758048       -3.44729864225985        0.86366411744229
H            3.36826344131356       -2.47342830960449       -0.83785941011729
H            1.73927515486330       -2.99635069497372       -0.78318799442020
H            2.01881366080130        3.21515023080328        0.16149975879921
H            3.56512906916005        2.53273312896202       -0.02427929695973
H            0.95860100961449        2.49072892659342        2.05599312884069
H           -0.56433466795274        3.28934204469132        1.90355088380860
