25
 energy: -43.482031360883 gnorm: 0.000864084273 xtb: 6.6.1 (8d0f1dd)
N           -4.56314111266539        0.00286532159483        0.01837018718625
C           -3.43035036745134       -0.17804888412750        0.01426511950437
C           -2.04579316147535       -0.50156884141917        0.01189581792984
C           -1.82170601070602       -1.90183400353668        0.01829518241455
C           -0.72188994053779       -2.70830640560019        0.01589846003337
C            0.67891484613646       -2.50036735489901        0.00615665226483
C            1.52311954364659       -1.42948793483271       -0.00069525697736
C            2.92687840606741       -1.64975156494784       -0.00817411750910
C            3.60479491129272       -0.45838168611405       -0.01225282779306
C            2.66891817750172        0.60343424589095       -0.00797904647746
N            2.94599818219956        1.90904165222610       -0.00880393773016
C            1.35362699459465        0.05587822809785       -0.00139102305664
C            0.24313237656375        0.87064430602475        0.00025433590462
N            0.38512751929784        2.21911865031241       -0.00384764626913
C           -0.85259188363380        2.71054263916462       -0.00334782970192
N           -1.83425751051625        1.82784731081530        0.00132284926693
C           -1.23222927378112        0.61810782906908        0.00440242580955
H           -2.76155000922421       -2.44708943783720        0.02620997726354
H           -0.97062772299865       -3.76404675900558        0.02222829771236
H            1.21935448098973       -3.44322161677157        0.00448526342034
H            3.37759623944157       -2.62568099859940       -0.00986434481593
H            4.67236988094213       -0.33130034390408       -0.01785587587747
H            2.12644926466685        2.52208007311070       -0.00876157952797
H            3.89457896671261        2.23745167244523       -0.01897406341067
H           -1.03760314206376        3.76983706374328       -0.00652297646366
