31
 energy: -54.606558362195 gnorm: 0.000766268127 xtb: 6.6.1 (8d0f1dd)
N            0.10579281057179       -4.66902402528021        0.68183870217676
C            0.14650312707829       -3.55212314544307        0.40564048692812
C            0.18763765840410       -2.19720801623544        0.04370624343842
C            1.31070559213604       -1.48660430288636        0.36644709019049
C            1.75039926073701       -0.18117019306780        0.06859942753285
C            3.11976172519016        0.14655547776678        0.15886849072444
N            4.14734719504080       -0.70154373091631        0.37788487995281
C            3.31164396793446        1.52601103597312       -0.12799648412123
C            2.08810383860646        2.09965238725848       -0.32591819717115
N            1.84523899490392        3.38874268517955       -0.67176596636416
C            1.04395791506149        1.07313721572132       -0.15678295198443
C           -0.27703406072405        1.38992163711284       -0.00273668184460
C           -0.78445703242586        2.66286171470383        0.45244494914958
C           -2.08872249292964        2.51661626889655        0.79292854812352
C           -2.53389237030287        1.18954819519738        0.44793966969194
C           -3.83653201614770        0.71580695385515        0.58536524077697
N           -4.91688388176870        0.33643219694273        0.70003685565064
C           -1.45183199450062        0.48356526433014       -0.05124679524950
N           -1.57221055410450       -0.65627157472327       -0.72581545721070
C           -0.91914353346782       -1.74986832178338       -0.81372729744192
N           -1.28830347399063       -2.62561459619062       -1.78098214749896
H            2.05592740547207       -2.08649034486562        0.88569381715188
H            5.05104500628031       -0.31457175216637        0.58620104294801
H            3.96770332306408       -1.64293150564872        0.68204694287340
H            4.26727212644319        2.01050795998356       -0.20319397100632
H            0.95648149829127        3.60705931309368       -1.09031750864812
H            2.63323898745344        3.93898811583191       -0.97111211633356
H           -0.18340075809127        3.52601535722691        0.66448847566199
H           -2.72065844642806        3.25842646296986        1.24776420183403
H           -0.99487852693101       -3.58574849763926       -1.71320156070525
H           -2.13186023735451       -2.42097978479817       -2.29058362222723
