34
 energy: -61.773934109670 gnorm: 0.000635473965 xtb: 6.6.1 (8d0f1dd)
N            2.40867647562688       -3.14287957151566       -1.83577846564934
C            1.74251645824987       -2.44878963520830       -1.20587263699778
C            0.87268221863805       -1.60379729030341       -0.48254350969330
C            1.56057784204160       -0.53812607823648        0.16993669895835
N            2.83502496105405       -0.69422282771568        0.44828029396721
C            3.30318877034384        0.51169282904617        0.90206846564954
N            4.58392160666254        0.60527357891962        1.31492747055625
C            2.34136982749005        1.50750115466253        0.80509435647852
C            1.16051716528104        0.87597452949419        0.37072528293068
C           -0.01656920485573        1.48239415671405       -0.02105099887280
C           -0.10372518748423        2.85681732474233       -0.50002113196155
N            0.94249703905037        3.68535579831363       -0.70296232758486
N           -1.34070064741860        3.20207289825816       -0.80132941813939
C           -2.12139903334532        2.13617330907247       -0.48069590565335
N           -3.47749595063067        2.24796691255262       -0.61355027753206
C           -1.37687417811849        1.02662289078122       -0.04387834327007
C           -1.95807341288146       -0.14562761270238        0.53661490976577
N           -3.14096102634617        0.06253138716148        1.17726395283177
C           -1.51917817858037       -1.45892079931966        0.40839496749508
C           -2.32991262066818       -2.44154307235738        1.00067258730965
N           -2.99660041190384       -3.24016275483978        1.49811236277474
C           -0.45108152744888       -2.01714946460608       -0.39891933375632
N           -0.79859602612255       -3.15093058306131       -1.05855809538087
H            5.08311314657519       -0.25770555730129        1.44602343458589
H            4.88704123592160        1.42037159887980        1.81761337782841
H            2.43938509923463        2.51591443011985        1.15677529377290
H            1.85846350504974        3.26711492118441       -0.75306986653032
H            0.75994094119848        4.48991964798865       -1.28059643746131
H           -3.76128540992939        3.04899664789763       -1.15636149945922
H           -3.98995205421529        1.39865557802581       -0.79389950082610
H           -3.57295741989198       -0.70119559665403        1.67192794188449
H           -3.39313621902529        1.00146422894762        1.43220899123421
H           -1.68819416825426       -3.58265871288439       -0.87016010598336
H           -0.07824929109745       -3.70886616595623       -1.48973820907103
