28
 energy: -51.444770630000 gnorm: 0.000455820683 xtb: 6.6.1 (8d0f1dd)
N           -4.98600428565340       -0.53540605743848        1.05899322506803
C           -3.88744036728914       -0.47423905912957        0.72549612094932
C           -2.56004514742106       -0.36916283285767        0.27774305567281
C           -1.64000411005373       -1.29207848177987        0.67796562888869
C           -0.30440586647288       -1.52308838440596        0.27142190098660
C            0.23727004445576       -2.80029117933873        0.39270718054710
N            1.49702705961235       -2.90891608484915       -0.06691039736101
C            1.88643162746025       -1.69026345200669       -0.38954939931627
N            3.03974131499586       -1.48450582398967       -1.02900278006159
C            0.81233502761024       -0.69081285950354       -0.16855661977320
C            0.95531722928457        0.66831289386442       -0.15627404437599
C            2.12888098683127        1.45538982868891        0.12087222994146
C            3.45144094268979        1.05614713606875        0.26791687725085
N            4.56638840198529        0.78085703885618        0.37969332190112
C            1.71457650518162        2.75346952430789        0.41287231686998
C            0.33452557906015        2.88367856114483        0.22126490957103
C           -0.17251717034567        1.65916144852197       -0.17012065666738
N           -1.34847591260517        1.49103673939737       -0.74001340776163
C           -2.32400442625448        0.66705879425569       -0.73749036810444
N           -3.26115273978409        0.77152258564058       -1.70135781662958
H           -2.02748965462947       -2.07195170359607        1.32745074352024
H           -0.26769270760135       -3.67029897297060        0.77295918458446
H            3.65336306740158       -2.28138523617850       -1.09434794926386
H            3.45359351069375       -0.56756355042927       -1.08699218350718
H            2.37554499137475        3.53804291578805        0.73705794978527
H           -0.23360139697856        3.78637671904409        0.33092982329426
H           -3.19000695278894        1.52031467675350       -2.36921451788241
H           -4.13323432805917        0.27901031534193       -1.61124918452654
