32
 energy: -58.343068427082 gnorm: 0.000482219931 xtb: 6.6.1 (8d0f1dd)
N            5.46658097795483        0.46508669711421        0.31390977150937
C            4.35805872784278        0.17280295921064        0.20439919480911
C            3.04267585681171       -0.25966844570606        0.10573588176847
C            2.62284358586715       -1.62672585771142        0.29621293483380
N            3.45106192261977       -2.63267712551785        0.60710773752906
N            1.32407089725032       -1.78628647450179        0.12436241905397
C            0.78907856504464       -0.54087938962278       -0.10061384271079
C           -0.55548479425100       -0.30592088037486       -0.02111241470345
C           -1.49164931889656       -1.42817155662265       -0.02458590397393
N           -1.10813425870166       -2.70443073351303       -0.06161450700291
C           -2.78041702633961       -0.91569824991097       -0.05042376524495
C           -3.96646815852857       -1.63173889833706       -0.16350335217969
N           -4.95864420526307       -2.20842679167902       -0.26475045052610
C           -2.69305228591149        0.51461633835301        0.05637793779085
N           -3.81846952497936        1.28765646482621        0.11360633556893
C           -1.35437706642325        0.91036605037289        0.09880041549761
C           -0.97957082951291        2.26569270487971        0.41694338079142
N           -1.92364743635373        2.95096389610163        1.14830833347204
C            0.05600616727689        3.03323964603617       -0.07774342593246
C            1.14130037949306        2.66081649464209       -0.88683328701641
N            1.88991297811612        1.61958335772975       -0.82869126283506
C            1.89375854082148        0.44503403560388       -0.25130659485185
H            3.10214924646288       -3.57247812028437        0.65937851398132
H            4.43254373430228       -2.45245683287712        0.72246005417894
H           -1.78649841444524       -3.44088972792275       -0.14533472473539
H           -0.09989443865887       -2.85614430956277       -0.01919882107555
H           -4.66904218551580        0.83393067221818       -0.18430722466918
H           -3.72642122739021        2.25774100050539       -0.14398619635996
H           -1.65159141012441        3.84923927943013        1.51271452906091
H           -2.55048417282635        2.41334432550015        1.72282993527913
H           -0.04262375106182        4.10054158552668        0.08723767432339
H            1.50294981722048        3.41059153039328       -1.58887584333120
