31
 energy: -54.619526982307 gnorm: 0.000920400255 xtb: 6.6.1 (8d0f1dd)
N           -4.22844928443000       -3.04370501596473       -0.00222163901179
C           -3.42247074313110       -2.22219661275868        0.00018625524813
C           -2.41481738580538       -1.22920323848059        0.00181190368333
C           -1.15105127479705       -1.80057005439666       -0.00144263071635
C            0.17394019230342       -1.38614153899357       -0.00220276862308
C            1.16681807738124       -2.37127134886564       -0.00324395015183
C            2.43974632979931       -1.78789276107945       -0.00483503648138
C            3.66949853478661       -2.44712740391272       -0.00659745059851
N            4.69839454536739       -2.96133425429313       -0.00797533534835
C            2.27938389146219       -0.38815812747144       -0.00533575566567
N            3.25709521437069        0.51983426530176       -0.00583691340557
C            0.86764062354214       -0.08391804496018       -0.00408031026379
C            0.42838975885893        1.21930275624020       -0.00824298037199
N            1.34501216423943        2.22186488330152       -0.01005123445771
C            0.68096695523558        3.38251556932682       -0.01588601464618
N            1.33086141137941        4.55710803477273       -0.03709699800992
C           -0.71413937662628        3.18935224003999       -0.01679601089318
C           -0.94367189244966        1.82028447909104       -0.01024603185355
C           -2.25056477974655        1.33745143937221       -0.00303653169136
C           -2.90832685618932        0.11462043621840        0.00537319774073
N           -4.26902068627795        0.20823430883645        0.02226807753625
H           -1.21441884177186       -2.88752814090696       -0.00365712787468
H            0.98379265247787       -3.43086746233840       -0.00263470585726
H            4.21958806646492        0.23049866670092       -0.01530530697691
H            2.93201015024841        1.48902922645847       -0.01387757162955
H            0.82378768206406        5.42009262157202        0.03082158282609
H            2.33313429788682        4.56778281729851        0.02432544939856
H           -1.45257698254496        3.96728687592591       -0.02047540921386
H           -2.95678896171641        2.16561709536213       -0.00256702644430
H           -4.84076615613753       -0.61857700546213        0.00843270318739
H           -4.71615508554437        1.10663203366510        0.00287029866629
