28
 energy: -51.458359879016 gnorm: 0.000921673623 xtb: 6.6.1 (8d0f1dd)
N            5.42763790228764        0.75524866295078       -0.18674138045660
C            4.28420065541248        0.87553885752213       -0.17678328991598
C            2.89748442396881        1.01393440148240       -0.16201917327832
C            2.16878874724877        2.19827325964666       -0.36344462523970
N            0.86748268289839        2.01700285099748       -0.26012135209549
C            0.63632450008348        0.68626187264769       -0.04058428546730
C           -0.66436612756078        0.24787620233321        0.05403637388495
C           -1.78645269244707        1.18320543137654        0.07229904627161
N           -1.64998577521594        2.50855874449489        0.16215401009693
C           -2.97204571808647        0.44535886898913        0.04485649744788
C           -4.26085126855943        0.97741446733242        0.07290000348992
N           -5.31674606493069        1.43356628786227        0.09159341808363
C           -2.63526717384368       -0.92797899596319       -0.07437707527149
C           -1.26607489104604       -1.08044107138218       -0.03830984475289
C           -0.59171364006499       -2.32684677114252       -0.24876173990709
N           -1.16421335145213       -3.20626498565377       -1.09403289506479
N            0.42964347296065       -2.75933002338594        0.43029105664635
C            1.54266873560115       -2.34206173483825        0.93986420349027
C            2.32353777537241       -1.23960037609525        0.59544814688657
C            1.95235681849818       -0.01014888537648        0.07335453927170
H            2.57150122834597        3.17235056092858       -0.58031886263478
H           -0.69892560575609        2.85317356908326        0.02144296819018
H           -2.46290642236111        3.09962148100824        0.12492863783644
H           -3.36157641039660       -1.71879771842339       -0.13857690186965
H           -2.02148280491156       -2.97620157431423       -1.56312225885931
H           -0.76402338454431       -4.12198623017056       -1.20249869963663
H            1.97362830052898       -3.03822329920422        1.65543130441589
H            3.37218343746998       -1.31749717990580        0.85964436893740
