33
 energy: -53.237871057293 gnorm: 0.000666522366 xtb: 6.6.1 (8d0f1dd)
N            3.34165254239216       -2.64442364261873        0.63666257737581
C            2.79941821106895       -1.66107758807762        0.37053716752378
C            2.28352128666439       -0.40464783121474        0.07851689380200
C            3.12987197529959        0.72486737080655       -0.03873876227808
N            4.47813188601116        0.68754413436611        0.02626901306264
C            2.32975947878669        1.85031008035576       -0.26862119950687
C            0.98470020059433        1.49228323439326       -0.21804896065673
C           -0.00287267747946        2.44861487798301       -0.44598323576678
C           -1.34828460045110        2.55606127427256       -0.11966549518924
N           -1.89063842125345        3.81166391810137       -0.31088951247541
C           -2.21200078508588        1.66921198488905        0.55157155532690
C           -2.31022585648204        0.29758935134849        0.65112876355134
N           -3.40282348858015       -0.15608806464995        1.35986970472388
C           -1.56478937756812       -0.73544153726018        0.00462390866323
C           -2.12065150627218       -1.97683041117356       -0.30922537317301
N           -3.45497746982383       -2.36206087393294       -0.25182445304406
C           -1.08871716018686       -2.85757361509140       -0.72879286515285
C            0.10667172783819       -2.21009870979174       -0.61841737478673
C           -0.12021997263403       -0.86235921668839       -0.20354687723863
C            0.93464510852702        0.01865484389824       -0.04300112294564
H            4.99844612042848        1.54472358199765        0.08218524426283
H            4.92176986574536       -0.16458293945246        0.32531453001617
H            2.70067418395371        2.84923115015404       -0.41072126572445
H            0.41205893706144        3.37791691869008       -0.82961006092334
H           -2.89172989548474        3.90186877713196       -0.31537636390396
H           -1.38771872200401        4.45697217933298       -0.89546176028600
H           -3.04256216609766        2.18990241576693        1.02327906784033
H           -3.85887043068611        0.49784684070693        1.97461038088629
H           -3.37402505238062       -1.11117252789563        1.67468263976010
H           -3.65788838408926       -3.16677745060760       -0.82772239851712
H           -4.11837622688634       -1.61121013466525       -0.38030611979084
H           -1.24818734412333       -3.86266458908945       -1.07604479180725
H            1.06425875469829       -2.61115666258757       -0.88591868972747
