28
 energy: -50.663359631014 gnorm: 0.000872025924 xtb: 6.6.1 (8d0f1dd)
N           -5.09621766547458       -0.59290585054206        0.07104377295773
C           -3.96708217169478       -0.37053825404216        0.03869527598805
C           -2.60323912000104       -0.08892371977590        0.01559103648902
C           -2.02399459841466        1.15474028763126        0.33441156511431
N           -2.74030230816115        2.26570638995773        0.62125280417125
C           -0.60992225259794        1.06164361373964        0.19011311706820
C            0.22729144228017        2.13002706266839        0.41042930873953
N            1.43019128544057        2.38622724515182       -0.04396713756124
C            2.51287356071266        1.75550637317345       -0.35432978089038
N            3.39186288281019        2.43972549673942       -1.12432648961158
C            2.98451518608194        0.47581835318705        0.10908536910177
C            2.29311732664176       -0.69370547601259        0.15397277665677
N            2.98118183434547       -1.86581129027184        0.29048553787049
C            2.09881467807500       -2.80599178684003        0.04348421290881
N            0.84963851403755       -2.41405490207763       -0.23134930452737
C            0.86495223010462       -1.06328474627514       -0.12142710278096
C           -0.30871587356717       -0.33746176916543       -0.16603968885099
C           -1.56931798990299       -1.00903642581606       -0.27491790469535
N           -1.70317140827298       -2.29717043933265       -0.59003791553323
H           -2.28472560625136        3.07025603363429        1.01327783430442
H           -3.72806063971499        2.16222999509245        0.78134932637011
H           -0.20383755448307        2.99947680304514        0.90608133846587
H            4.24606484176405        2.00666600235949       -1.42531300533687
H            3.10158608050345        3.30549700749002       -1.54533080763894
H            4.05692260785649        0.37608770117685        0.21589033488760
H            2.35946497366679       -3.85040295327671        0.05585846166354
H           -2.59955408257176       -2.74644440556852       -0.50606925656528
H           -0.81228774641081       -2.81226441634651       -0.57388231606558
