31
 energy: -59.422575109912 gnorm: 0.000128855599 xtb: 6.6.1 (8d0f1dd)
N            5.89861041565573        0.33280321971792        0.85883956965758
C            4.78261289799634        0.26025897312259        0.59693762084757
C            3.42575860280133        0.15074732664257        0.27130273763272
C            2.52096509045916        1.18707361105651        0.11510747277069
C            1.24536136426552        0.63347545874393       -0.13405417957456
C            0.13665973926253        1.43767222177293       -0.36241403654718
N            0.25672945713108        2.72719551239663       -0.66793145400035
C           -0.99911738967094        3.21063590594209       -0.66645127257450
N           -1.28483148591790        4.46673207582207       -0.98818541752256
N           -1.95641793128210        2.32989460312459       -0.29978072539562
C           -1.31689467839524        1.18067324593514       -0.11482741023778
C           -2.00005327628957        0.11096076164178        0.47853195860932
C           -3.21630419371836        0.53585106494539        1.07177447158075
N           -4.19554301314789        0.84614529228965        1.58508892546196
C           -1.77097919251407       -1.27932275247930        0.50931637177332
N           -2.65127609652721       -2.00975913368529        1.23013263980054
C           -0.83265571670636       -2.04343529230241       -0.25474115433219
C           -1.33988467273781       -3.31527934261574       -0.60361150926366
N           -1.75259884246300       -4.34721755634926       -0.90196177809440
C            0.50420452755661       -1.83636430036758       -0.62681574077301
N            1.08271774764632       -2.79193284729647       -1.38384215834526
C            1.40484269116820       -0.80882685999213       -0.19470386801689
C            2.74655956152926       -1.07306735368056        0.03097858133964
H            2.71466515857613        2.23725513719532        0.20934477058874
H           -0.54052890416082        5.09520615351543       -1.23289905218738
H           -2.23988686795703        4.77595695430543       -0.94979994405683
H           -3.44997311659384       -1.55955082174841        1.64891937553984
H           -2.63389022826252       -3.01546093968097        1.18756188968593
H            0.57964125013514       -3.62313649077135       -1.64884892564623
H            2.05314221350325       -2.70692538281485       -1.63002661483066
H            3.21110164166633       -2.04137323028681        0.09439716921181
