33
 energy: -58.047693160047 gnorm: 0.000493592398 xtb: 6.6.1 (8d0f1dd)
N            5.46951825453684       -0.62173971987666       -0.28465675584997
C            4.34433671244378       -0.86336912179844       -0.31545542314429
C            2.98443349705925       -1.15810665346648       -0.36458295709661
C            2.41297463746305       -2.38663426870735       -0.84155175547926
C            1.05914529338438       -2.35034755002415       -0.68592714119642
C            0.68627230140362       -1.05103015261955       -0.21541359313555
C           -0.58823567981978       -0.55017469239871       -0.07133865395002
C           -1.75468588874054       -1.39629069651072        0.23350497375001
N           -1.69946230499659       -2.71093979903294        0.51986484829890
C           -2.87212164258822       -0.58840162008922        0.28756287041194
C           -4.17181836712702       -0.96248169895763        0.60957519083772
N           -5.25416745429238       -1.25604845804710        0.87220768864519
C           -2.45719170153919        0.76082270653758       -0.03637166257313
N           -3.32099535839069        1.79209197276648       -0.10768662440665
C           -1.07640312024545        0.78827771759031       -0.21325456036769
C           -0.39180116919048        1.96851540831253       -0.74570173261676
N           -1.13963857559061        2.66214292938797       -1.69757145425941
C            0.76150345900918        2.49650924512644       -0.29714392473495
C            1.57826247217514        1.93324265454976        0.77358309837774
N            1.86809675996344        2.75943219147494        1.80695323091095
N            2.10792017255633        0.76779176971136        0.78145814232584
C            1.94791484200213       -0.31883218762443        0.02206115660699
H            2.98907428956161       -3.19530390213467       -1.25480619469657
H            0.37612940176967       -3.10547473786828       -1.02966436535056
H           -2.50725423465800       -3.14482536394649        0.93529604024957
H           -0.80023802224117       -3.14133905520215        0.65461748245839
H           -2.98029079650557        2.70667149132183       -0.34777758623717
H           -4.30205533142515        1.63475090077967        0.03784646602423
H           -0.62072726875493        3.36349371911615       -2.20615486583903
H           -1.70358479176214        2.07840007621802       -2.29785852411579
H            1.11416771322039        3.42971030803677       -0.71728767114749
H            2.54937974371523        2.45507995489646        2.48156877062008
H            1.65509386590527        3.73833006018162        1.74113539748175
