31
 energy: -55.395497371167 gnorm: 0.000976270227 xtb: 6.6.1 (8d0f1dd)
N           -5.76897611751381       -1.36166630702394        0.78978154698175
C           -4.67922005828271       -1.10197640990312        0.53528837303924
C           -3.37332283497296       -0.72524613868223        0.20491482200781
C           -2.22938546181325       -1.45971175982132        0.30050145146436
C           -1.10891671073650       -0.63247900387987       -0.09206295070914
C            0.16120733573855       -1.14551915561802       -0.16743746201848
C            0.42783315808800       -2.56029747328323       -0.24300198916629
C            1.76221620615554       -2.75867858489049       -0.34746672974829
C            2.42593564790778       -1.47953799503247       -0.24161626671366
C            3.81264215377224       -1.32269267731537       -0.31567699764393
N            4.95179110387444       -1.23254461046226       -0.44039315696035
C            1.47418005488740       -0.47987966161752       -0.14965224594443
C            1.82350914951561        0.86350304931207        0.21474846385810
C            2.95927031102139        0.93943278794673        1.05239486042406
N            3.82974749971036        1.05332474242196        1.79497053593192
C            1.29291437185446        2.08368119657293       -0.17638765306805
N            1.91986125919150        3.21454689555082        0.23524691521652
C            0.17778424341816        2.33469722090729       -1.05718673239742
C           -1.03872120905817        1.76463245925312       -1.14342880641991
C           -1.65241412576751        0.66156070583184       -0.47141233217145
C           -3.02962251318245        0.58687558241394       -0.32474482749203
N           -3.96652633905108        1.52039693735676       -0.60964691166074
H           -2.15250610704207       -2.45892201520982        0.68254394956470
H           -0.32914339330537       -3.31629446880429       -0.32101881500201
H            2.27623061837199       -3.69154768198392       -0.48876533734352
H            1.61207015973134        4.11389149157223       -0.08767337337471
H            2.75805597044991        3.15566951527695        0.78851995826372
H            0.32482163208881        3.22581584202311       -1.65827674697541
H           -1.72397291833686        2.26696076870326       -1.82113283069740
H           -4.92399886305671        1.34629379601069       -0.35900360655468
H           -3.69596382475763        2.45848380207428       -0.84146419459136
