32
 energy: -59.119109248879 gnorm: 0.000776417042 xtb: 6.6.1 (8d0f1dd)
N           -4.79994868509478        0.12792386819341        0.93160629283600
C           -3.81247057399245       -0.43260040868715        0.74985534668064
C           -2.62880043289958       -1.14352858802741        0.54087991716120
C           -2.44962421484408       -2.48721732438715        0.80143283494633
C           -1.10488750531322       -2.83285351181227        0.53278861677271
C           -0.39528391333060       -1.70428419573178        0.18872368850687
C            0.93362936728094       -1.76572310736621       -0.34554984400499
C            1.21068775220011       -3.00472303833351       -0.96548804388343
N            1.45235479677935       -4.00210142844385       -1.48452877329460
C            2.00552495688665       -0.88770853836215       -0.26953952796665
N            3.18169586748993       -1.25702912365276       -0.83984713383961
C            2.07677174495245        0.36364056252428        0.46613833222653
C            3.28787011366290        0.52105841735465        1.16687089375932
N            4.27355809864465        0.65519085803676        1.74625823099741
C            1.22347443765551        1.45001494215953        0.45929589722732
N            1.62009296228523        2.58945232668436        1.09397335502073
C           -0.01692312491219        1.57179801720651       -0.26474804142859
C           -0.46856598327603        2.76182656438666       -0.83537051656112
N            0.18551295516411        3.92781612265813       -1.03783333143367
N           -1.79096443124626        2.67281107930889       -1.23922258073902
C           -2.22290069874844        1.52137949712241       -0.85037982547773
C           -1.16589834365062        0.70989927028548       -0.24585049081466
C           -1.35251453918945       -0.58164025213795        0.16990289073014
H           -3.20810391368165       -3.16141302126962        1.15560109695902
H           -0.70239408054805       -3.82636116730294        0.60137132495632
H            3.28257304014936       -2.19031251088377       -1.20642500376887
H            4.01764829339411       -0.73365920181637       -0.63988809880765
H            0.93071675391063        3.29570777305144        1.28799621485117
H            2.42574590730214        2.54941789269106        1.69879577302044
H            1.19121001078913        3.93615142123268       -1.02234630865186
H           -0.28276079543011        4.59109739984336       -1.63289093386006
H           -3.22005052698938        1.18994834727496       -1.06732895591904
