26
 energy: -46.419541217212 gnorm: 0.000784999675 xtb: 6.6.1 (8d0f1dd)
N           -4.18121043604009       -1.44992498591966        0.08419260009473
C           -3.02118317022435       -0.77976581425674        0.04841423025626
C           -2.82857425560177        0.58615181554109        0.35989846553142
C           -1.49843934541145        0.84793329051686        0.10536116389970
N           -0.96080987661314        2.03605163048252       -0.03478893053310
C            0.26490506156807        2.46143762647928       -0.16548734770756
N            0.43816510068106        3.53004217593020       -0.98786646625994
N            1.34760314034454        2.15213417054881        0.56421020212744
C            1.90922049447863        1.00482882112380        0.75913247393377
C            1.65031422056883       -0.25625019243683        0.20720650652643
C            2.60423420186428       -1.29386480126458        0.16404244714544
N            3.90590163591322       -1.25688907245607        0.54134887690121
N            2.08870267468700       -2.45497984416185       -0.32310718304440
C            0.81352450466306       -2.22981359110806       -0.54665162592290
C            0.42219540711613       -0.88692607989601       -0.27075368764312
C           -0.90474343284569       -0.50684176339150       -0.23228605729147
N           -1.89076143083975       -1.40763564075473       -0.32461750000590
H           -5.00409152649181       -1.03076913477638        0.47694317748923
H           -4.17404180222392       -2.42831590205216       -0.14270131336863
H           -3.58759443599192        1.28582906760623        0.64435799098227
H           -0.38257446811180        3.97386160077729       -1.36148393575293
H            1.28148301660309        4.06827227635289       -0.89521848692649
H            2.78382957989454        1.06887318646788        1.40694953078964
H            4.46502298443051       -2.04603378674908        0.26621490079597
H            4.36566478794126       -0.37258387048282        0.65950188926245
H            0.15948161924164       -2.99792680152023       -0.91215315837960
