23
 energy: -39.234767825532 gnorm: 0.000805494620 xtb: 6.6.1 (8d0f1dd)
N            4.00942355994500        1.01919008669900        0.40266608458629
C            2.76816662981128        0.57629233441556        0.19362251025022
C            1.64613034399501        1.36649388835241       -0.18554940304375
C            0.56456210416728        0.51803660982477       -0.20698374273303
C           -0.79609518921049        0.83763227650176       -0.17750586992840
C           -1.27751750944912        2.14750991363739       -0.33416659438871
N           -2.58124008505187        2.25600809625816       -0.06998596013849
C           -2.98662583191071        1.05815794119699        0.33493961470021
C           -1.96713291782768        0.08183211730918        0.28442108921438
C           -2.25982700801909       -1.24092114812568        0.61962845301046
C           -1.66094470180886       -2.44311362851796        0.30458477187371
C           -0.43745486481111       -2.65317520067713       -0.34210851541281
N            0.66365376361513       -1.99483612923040       -0.22322515862396
C            1.17646478531401       -0.84908681895034        0.03494039372157
N            2.46836345747485       -0.72202303298072        0.35983365111938
H            4.25668197817049        1.97487355384649        0.22023286010095
H            4.71215249171185        0.36327221441070        0.69599981577473
H            1.66111380904330        2.42613716840427       -0.34342502775099
H           -0.71500862335545        3.00570122886660       -0.65234699868653
H           -4.01198279149628        0.89170002356134        0.61361650247520
H           -3.24309324094635       -1.34084298001035        1.07177356414370
H           -2.25741687562189       -3.33201840441260        0.46768431249745
H           -0.33494369293915       -3.56587237837936       -0.92682317116156
