28
 energy: -46.636105885498 gnorm: 0.000962754482 xtb: 6.6.1 (8d0f1dd)
N           -4.07805814201117        0.83288619806998       -0.17279258625702
C           -2.94758799737453        1.06299040082046       -0.14444051409088
C           -1.60492501757985        1.41948980566056       -0.10432314588891
C           -1.20546337789449        2.71226200753524        0.25009370292822
C            0.18169931231355        2.79565187782980        0.31251494114835
C            0.71521125131268        1.54183951346889        0.03433698088833
N            1.96446711809948        1.35439396288007       -0.30717322577062
C            2.88850950060535        0.45840211170774       -0.21490495486719
N            3.99935911499682        0.66686438409223       -0.96639412092740
C            2.93552350248559       -0.61278913063780        0.73735744163253
C            1.91323052838194       -1.43987177947204        1.08542959129517
C            0.61091609425483       -1.62657758932653        0.57842570867343
C           -0.03976806573516       -2.83080803113416        0.79511417032415
C           -1.25951792610458       -2.87977616892252        0.09614288365085
C           -1.46405273254639       -1.66169593022750       -0.51351906099255
N           -2.41381827931526       -1.38811291761409       -1.44995786549434
C           -0.36150969965170       -0.77751860907987       -0.16037697927831
C           -0.43267985162492        0.58920951096317       -0.15506021818789
H           -1.89110409501315        3.51907932969904        0.44379813237591
H            0.75463742887724        3.67800291623605        0.52001781996731
H            4.73061070286613       -0.01941577754774       -0.99166120416987
H            3.98187351983516        1.38965458915901       -1.66435920175702
H            3.91328421636645       -0.81399319602846        1.15360371872619
H            2.19016538674449       -2.22583868256584        1.78166111806143
H            0.36265649244462       -3.64312654261860        1.37424499437926
H           -1.90637202235815       -3.73442012488647        0.02672884266136
H           -2.57315933706948       -0.42518192551223       -1.69778997520801
H           -3.24906599580629       -1.95219296874747       -1.41925927012262
