34
 energy: -62.578821788132 gnorm: 0.000815398203 xtb: 6.6.1 (8d0f1dd)
N           -5.10660339759220        2.16711869608437       -0.47396529129705
C           -3.98831192114069        2.10408154675138       -0.21230405864382
C           -2.62977080827109        2.01629171139357        0.08413070982330
C           -1.81116977142311        3.04584242001289        0.61299622854148
N           -0.56323278721275        2.67019360278359        0.73249068917390
C           -0.48247130699633        1.34820580702307        0.33943337669966
C            0.74856600376270        0.75144665431244        0.20315250274335
C            1.97414599669528        1.57512411733883        0.13248887513343
N            1.96535950868435        2.89287617263510        0.28397972842303
C            3.03460048883236        0.73727152465103       -0.17693608370597
C            4.35827824899773        1.09778646289011       -0.40879588312162
N            5.45849575557785        1.37321403832239       -0.60601079580516
C            2.53903707366718       -0.61231862970942       -0.19530670481193
N            3.34684138208110       -1.67593547156730       -0.40458170570838
C            1.15607833954018       -0.61191585419536        0.04208379420645
C            0.44823635146333       -1.81648718694324        0.41979348367425
N            1.22122456107404       -2.70759066638392        1.11447385487139
C           -0.83243235016460       -2.20798902593310        0.09004175393429
C           -1.23366060881631       -3.47474971891466        0.55314645750814
N           -1.55863048974812       -4.51409699828562        0.93011749643338
C           -1.84509923349772       -1.57068688191017       -0.74210426446387
N           -2.53414986354920       -2.44316723790681       -1.52962452220702
C           -2.26175254778219       -0.26404929191375       -0.73975457000738
C           -1.80963896091394        0.88864620568482       -0.07507831626402
H           -2.12625439427773        4.03543797921537        0.89333070534967
H            2.80986703417333        3.42999631435882        0.18578562104598
H            1.05203522654793        3.28403182877631        0.55307445206082
H            2.93996737049117       -2.57540968400220       -0.59720145575009
H            4.28015311671179       -1.49941833234279       -0.73789960536074
H            0.76852091039694       -3.51580645484832        1.51300794015623
H            2.03312456118439       -2.35898291478640        1.59510786351843
H           -2.41277015580263       -3.43381622264660       -1.39803757208261
H           -3.38806348282941       -2.13673080017748       -1.96523361508891
H           -3.17297215766459       -0.08938559756556       -1.30564166117890
