26
 energy: -47.224796719372 gnorm: 0.000585488231 xtb: 6.6.1 (8d0f1dd)
N           -5.18670015444817       -1.70954033037784        0.08614933006474
C           -4.13960254175931       -1.24290972034144        0.01010030432827
C           -2.86872752995660       -0.66285381791959       -0.08430409393478
C           -2.59331125502764        0.61492859420077       -0.62569395235890
C           -1.23667313709031        0.87927122544612       -0.49364054306184
C           -0.66186436544720        2.07208319291258       -0.99203374740313
N            0.36852039246238        2.73198796481402       -0.60049215631960
C            1.31366267764287        2.42433725970287        0.29729547065257
N            1.58964832238708        3.39610072143048        1.19748937873636
N            2.14202230671961        1.41492084336790        0.25086212374090
C            1.97473282148423        0.13751214772191        0.01923341556869
C            2.98864000225507       -0.79125602346063       -0.13353468569593
C            2.38989628999911       -2.05092948106796        0.05410438117026
N            2.99295612222894       -3.24291845163421        0.05139809525188
N            1.05066908352517       -1.97807105344452        0.25988508267490
C            0.71327743946822       -0.69743638615957        0.17078412522223
C           -0.62289405147449       -0.31225874178254        0.09343938575033
C           -1.66797004432107       -1.23735715798809        0.31171138519024
H           -3.32602889346691        1.28453126667583       -1.03841822200852
H           -1.23321804623227        2.57965127921552       -1.76729016224565
H            2.43605732542580        3.32433088368973        1.73425740069563
H            1.14495832176639        4.29127943818901        1.09610311655025
H            4.03112238479038       -0.59359257585284       -0.27414111646956
H            2.43465535758837       -4.06359994492354        0.20972577956974
H            3.96602939451095       -3.33077057888282       -0.17863495775165
H           -1.52603030682869       -2.22005680012842        0.71694020618302
