24
 energy: -43.775790563240 gnorm: 0.000634996735 xtb: 6.6.1 (8d0f1dd)
N           -4.33206359221398       -1.09041847580667       -0.76972166040075
C           -3.30745101056420       -0.64251528690145       -0.49887322760982
C           -2.10227282132652       -0.02120301007118       -0.19054765223210
C           -1.93832087612777        1.39804824409403       -0.02500872408569
N           -2.90495685106651        2.30317859336909       -0.16678650216212
N           -0.68906917818050        1.73916102009117        0.29440847540439
C            0.04811444152701        0.61709679436345        0.29614729260513
C            1.42879877431546        0.66894691934915        0.28382788640225
C            2.12325791268686        1.90508959881396        0.42574213943600
C            3.44652590307428        1.72048502481203        0.11502756015966
C            3.62673717659121        0.38663920822290       -0.30101374434554
C            2.42866060669266       -0.30448633057396       -0.17939776367581
C            2.28156576131692       -1.64548644914344       -0.60186426275941
N            1.49333419159861       -2.55868509984973       -0.15619346037102
C            0.42624525100228       -2.52792492349714        0.61292580517241
N           -0.64017784897341       -1.81253029390418        0.48202462447504
C           -0.86308900967472       -0.57783233531264        0.11900009708000
H           -3.82897623404844        2.02098701625800       -0.44533359246260
H           -2.69908498270517        3.27113294621976        0.00966694836917
H            1.64060337089834        2.81384622759179        0.72797744591531
H            4.21980432581972        2.46583795564594        0.15493168327750
H            4.55264046642932       -0.04327005337435       -0.63829305142342
H            3.01963291977744       -2.00419747980552       -1.31644401395451
H            0.34521787755271       -3.35843463088756        1.31148025378826
