25
 energy: -43.465071875079 gnorm: 0.000970586897 xtb: 6.6.1 (8d0f1dd)
N           -4.87865309797428        0.67666563641464       -0.19569469041613
C           -3.75782343385142        0.42835474369726       -0.16943235004447
C           -2.37880173204167        0.12912588318781       -0.13825567599761
C           -2.00207235435335       -1.10672729697249       -0.70385351185166
N           -1.00669136948179       -1.83971489015190       -0.36317451586551
C            0.16825583558279       -1.82858590905398        0.16006103907464
N            0.70098203113826       -2.91374000372037        0.71793000991167
C            2.02169380676402       -2.68411174737595        0.79354027947223
C            2.41738646413148       -1.44766519046419        0.30614467305064
C            1.23655195502570       -0.75513028355039       -0.01324918105506
C            1.02501655463151        0.60184467598287       -0.12033683013821
C            2.09755498218140        1.54923884716372       -0.21264344419443
N            3.38055706452702        1.26473365228949       -0.56660700165115
C            1.62159549763020        2.81224579585240        0.14454377126050
C            0.27422723449992        2.70903353809219        0.44620088160000
C           -0.18681205533831        1.39642217498321        0.22474155090463
C           -1.54318952863913        1.14358111405931        0.33914068233017
H           -2.68948100879695       -1.56967239786074       -1.40815899750045
H            2.66198541801405       -3.44098432037141        1.21317689201872
H            3.41948780728377       -1.07084147357208        0.32642178250916
H            3.54172887192342        0.44588341725381       -1.12914776152618
H            3.98288116138867        2.05144146608440       -0.74620265421994
H            2.20776155785735        3.71278100639745        0.16198437773400
H           -0.35705397649646        3.52514509748407        0.74774105713923
H           -2.09589865400625        2.00148849745068        0.71435133515542
