29
 energy: -55.184081004701 gnorm: 0.000942982011 xtb: 6.6.1 (8d0f1dd)
N           -4.93236882091274       -1.28502903734787        0.77475404688130
C           -3.84618031584168       -1.00112839520517        0.52100221004083
C           -2.52013359166843       -0.67028544948134        0.19961331738858
C           -2.12734920473253        0.64243928455699        0.39144851620531
C           -0.99599189779428        1.36471750132373        0.03031698242514
C           -1.02434929538159        2.78756995607957       -0.00927792250135
N           -2.07416788507031        3.61251488878833        0.18580048417812
N            0.16219983288121        3.31956206774315       -0.38736260892098
C            0.99591419348354        2.31286099285106       -0.53940851108075
C            0.39247968550871        1.04322473396488       -0.31822931909446
C            1.12974818802522       -0.12326827716886       -0.22929525579615
C            2.51976054008379       -0.27001364951036       -0.10976030820856
C            3.56128395518252        0.63564162304731       -0.26547540831607
N            4.48772712034243        1.31073213276083       -0.38172219267406
C            2.73442555808488       -1.61101049061586        0.34444467824151
N            3.91407264450718       -2.13697807980723        0.66415670392276
N            1.59845127218708       -2.32080960382710        0.43809690716659
C            0.61772799934785       -1.51955963933639        0.02330368093798
N           -0.53398371497397       -1.99840559013498       -0.29738893159946
C           -1.77247508018728       -1.69256141568658       -0.49950054294986
N           -2.45818177719870       -2.46591348447776       -1.36334264100445
H           -2.92126842280373        1.25525034736910        0.81202226326306
H           -1.86215840350854        4.59547694966787        0.20499036123935
H           -2.89100538225085        3.29589321391148        0.67833230122696
H            2.01937166641999        2.48758121085835       -0.81370877719044
H            3.94873972380550       -3.07853897514067        1.01465317357679
H            4.75695608270635       -1.59897715054738        0.55453689855008
H           -3.45970396524431       -2.39133282151163       -1.42170767656149
H           -1.99574406641844       -3.25324703961859       -1.78564512184667
