33
 energy: -62.879208197222 gnorm: 0.000710332380 xtb: 6.6.1 (8d0f1dd)
N            5.66440170062501       -1.48255214595977       -0.30004984454641
C            4.58679262412351       -1.09490822578211       -0.19000686877677
C            3.27099087066348       -0.65579019077729       -0.05398764711731
C            2.84405083886186        0.68074982645728        0.15227203696003
C            1.46250575641269        0.75411378549391        0.19532978447347
C            0.80997124089320        1.98129748475211        0.57848047474056
N            1.52274736881337        2.75659737916531        1.42919192748770
C           -0.37811487628570        2.51464428031568        0.08639223638454
C           -0.67580063671511        3.85122085718296        0.38674680382621
N           -0.92839677157394        4.95173734334775        0.61614234488865
C           -1.30776447943230        1.88735336056533       -0.83077510277997
N           -1.76759713717903        2.65161134350512       -1.84571346917564
N           -1.84723317089484        0.72277370456768       -0.69815638788074
C           -1.60342835506599       -0.42742501490982       -0.13263725415699
C           -2.56482687951820       -1.38808023538075        0.17799335562974
C           -3.94846050976594       -1.27309204407691        0.23248919092891
N           -5.09698566524996       -1.23717873257567        0.29624206127413
C           -1.84151573231745       -2.61645015046190        0.35999023191358
N           -2.40323295670216       -3.79588096687253        0.63596119731130
N           -0.52917151622451       -2.46609926511600        0.20811198861278
C           -0.29759467232062       -1.13974726237750        0.00833592234793
C            0.96375221739067       -0.60577951847930        0.02373543189342
C            2.13697952688853       -1.46669568105504       -0.06236496827662
N            2.06740935436483       -2.79439175159626       -0.18924744856701
H            3.52776047101556        1.50978965345113        0.21160810210624
H            2.42285609132967        2.45482378478933        1.75506326849699
H            1.20764813787823        3.68756456261159        1.64666086285997
H           -1.56278470833462        3.63632875744613       -1.86267753099461
H           -2.54512227002847        2.30975615357631       -2.38553737731441
H           -3.39627305172978       -3.85709092925309        0.77853002585492
H           -1.82967300498984       -4.61509495002208        0.72998688403647
H            1.13917647068487       -3.19875231093574       -0.09557477419169
H            2.90399762128563       -3.34229608069178       -0.28658352885172
