25
 energy: -43.478968686436 gnorm: 0.000871686196 xtb: 6.6.1 (8d0f1dd)
N           -4.93660394600808       -1.24649266615737       -0.57016059138166
C           -3.84877563692170       -0.91348493078815       -0.41421098615891
C           -2.53050432385847       -0.48131521573047       -0.22127457958885
C           -2.13413755311593        0.86474818794813       -0.11230077848509
C           -0.74497259351536        0.93002834899806        0.01552187364840
C           -0.08346053653061        2.16848363059846        0.18757184683852
N           -0.86168175118174        3.18844159363045        0.61915489156623
C            1.23079330256525        2.57163983461706       -0.15610203756223
C            2.42324213042641        1.96469642125159       -0.46040255661224
C            2.92796329198764        0.66651426046493       -0.35850254617799
C            2.37843406317970       -0.53659756119705        0.01439778427369
N            3.19863936855238       -1.60301664779139        0.16589536732591
C            2.39652550241043       -2.61981585793664        0.42288038956864
N            1.08381170363784       -2.35769048983174        0.41645216052511
C            0.98687582479359       -1.04594941112854        0.18427463283179
C           -0.26995119937509       -0.46380686646346        0.01333740009632
C           -1.39828313733301       -1.28558063613803       -0.10526672317770
H           -2.81889128945755        1.68846542010782       -0.20896694102632
H           -1.80725275189874        3.01837908143077        0.91069895973100
H           -0.49785615670260        4.12253284622362        0.68680853954330
H            1.29876552461677        3.65622934868357       -0.19485764717286
H            3.18342667706170        2.67510275424445       -0.76959403891808
H            3.98920714201900        0.57795985834611       -0.56260285720866
H            2.77062569840549       -3.60804556351200        0.62209674841636
H           -1.36426508675735       -2.35674508437025       -0.12514978759463
