28
 energy: -50.666924936353 gnorm: 0.000457996008 xtb: 6.6.1 (8d0f1dd)
N            4.89401420886208        0.15608364751507        0.99942715888668
C            3.82195747891579        0.42456319919246        0.67981437190402
C            2.53056375069540        0.77634012114858        0.29877751796193
C            2.07094595617371        2.07670035182656       -0.00969265982798
N            0.81392575015300        2.11901001792189       -0.38633785650354
C            0.31221785013196        0.83571410734900       -0.28484731613241
C           -1.03337335820222        0.60842133767809       -0.24641071852774
C           -1.98368415700944        1.71697162295849       -0.40538277004063
N           -1.60466730126721        2.93153582250199       -0.81083546018006
C           -3.25033774793348        1.26839373423868       -0.09817441473757
C           -3.17082763276537       -0.08479323614911        0.28295881396093
N           -4.24852197704543       -0.82780503978083        0.61721192534854
C           -1.83236734398570       -0.54570798133136        0.17663486218687
C           -1.47579621033826       -1.83830746564208        0.56182922823170
N           -0.46490118498072       -2.60003240792224        0.27388581009516
C            0.66570235505072       -2.31487935247750       -0.37159004562039
N            1.06793577406414       -3.25145492380201       -1.26285844665744
N            1.54248239469425       -1.37443988982528       -0.10284691247450
C            1.45096314367249       -0.08480973993378        0.03222980518546
H            2.65822421952351        2.97856601601663        0.03282223556407
H           -0.58790013609150        3.07467640234544       -0.80522083028968
H           -2.25656949610003        3.69584458822610       -0.77641626656444
H           -4.15362539115111        1.84893936210915       -0.13276603823918
H           -5.11775351908096       -0.35564962319633        0.79465999831548
H           -4.12389075351662       -1.73706022846094        1.02652523337562
H           -2.22800353395553       -2.37849834671738        1.13768829020273
H            0.56219421615266       -4.11862966283197       -1.30761522608046
H            2.01882691707325       -3.22039792186652       -1.58801503434290
