30
 energy: -54.097016680775 gnorm: 0.000481897603 xtb: 6.6.1 (8d0f1dd)
N            3.73072277134780       -2.55964883756493       -1.12354827439339
C            2.76165273093691       -2.10905697630062       -0.70331963970652
C            1.53968040703350       -1.59263408375194       -0.21889204477443
C            0.46313118123820       -2.45954832065754       -0.26601730561834
N           -0.67957300334293       -2.42674757503254        0.37479387601924
C           -1.58492667761048       -1.55563761072090        0.67506261912468
N           -2.53794228426158       -1.95497933567938        1.55676308448940
C           -1.77822029989559       -0.28368980630538        0.03841692570278
C           -3.00528349701090        0.30772335676056       -0.26459184852517
N           -4.25483118380615       -0.24060530183054       -0.15075671240584
N           -2.87092804265033        1.58562506947958       -0.71946779004883
C           -1.58808318320470        1.87555971196474       -0.63105828286770
N           -1.10368202106248        3.07641004595607       -1.02627005143531
C           -0.79195604121452        0.75059790937240       -0.14743708822066
C            0.54841785766462        0.82744309727599        0.18221116164479
C            1.26972338752807        2.01169305816572        0.44000104642891
C            2.58359040651361        1.63666652679178        0.66730770683465
N            3.64396430922235        2.40437213372873        0.99130266098792
N            2.77182229605751        0.29107929083524        0.47593432158237
C            1.59832821351920       -0.23701767118714        0.22112219702668
H            0.63456725861645       -3.40733891968145       -0.77370053145878
H           -2.36662417966445       -2.79028539605604        2.09075193982534
H           -3.18559775242568       -1.27434065881654        1.91316036447998
H           -4.31188078040354       -1.24318322573380       -0.24250223970960
H           -4.96337040599413        0.27551997989019       -0.64983400811396
H           -0.12831846335562        3.12056797766561       -1.27508125776279
H           -1.74302055223331        3.63826061828875       -1.56567018042870
H            0.86177088404900        2.99036713769535        0.59702698814667
H            4.49009350060631        1.92592372675036        1.24824599431736
H            3.50270385490300        3.34680075859761        1.30817645985971
