30
 energy: -54.907062517463 gnorm: 0.000922872755 xtb: 6.6.1 (8d0f1dd)
N            3.61359240432704       -3.86310592800763       -0.04529412139533
C            2.78917230818190       -3.06222560661834       -0.03083808681055
C            1.79450397989882       -2.05692691335565       -0.01459988045785
C            0.48680205414734       -2.57392308339183        0.00035254056446
C           -0.78005888457401       -2.04662086348525        0.00511483809076
C           -1.32553471135177       -0.75404825255638        0.00305656289594
C           -2.70576692343716       -0.57675190376325       -0.00217995004400
C           -3.72221060462855       -1.52320641176734       -0.01751954338801
N           -4.61106306346405       -2.25534868785071       -0.03372048473466
C           -2.94954785325299        0.85084250705208        0.00957224264856
N           -4.16567896409516        1.40621006303914        0.00863770910620
N           -1.83043593430392        1.53343270684461        0.02259073367034
C           -0.77820808252757        0.63153736786530        0.01450807857641
C            0.49304351676994        1.11347631576233        0.01364415333262
C            0.77007061075293        2.55126610803584        0.02437928591678
N           -0.16289007911460        3.49223535239920        0.04621645640947
N            2.06735784585900        2.82280364207415        0.00830706720023
C            2.71743174919209        1.64095680740439       -0.01070697175496
N            4.05980162343020        1.64794177594702       -0.00962957442060
C            1.84366092468332        0.51510267880383       -0.00674767253161
C            2.33996033526410       -0.76745748199928       -0.01900088180887
H            0.48980269656139       -3.66111907341307        0.00479139856094
H           -1.56124719130588       -2.80132633860185        0.00917944599228
H           -4.98228548860125        0.82057964165528       -0.00618749760879
H           -4.26445384326298        2.40557770334085        0.01532394355302
H           -1.12326274177983        3.14175539108282        0.04774210979132
H            0.10993788488084        4.45896862326172        0.04882480280304
H            4.51820660808213        2.53929967287714       -0.06847413018338
H            4.59601977260608        0.80613783550505       -0.11188107574025
H            3.42733842836050       -0.80206150033801       -0.03110847443634
