27
 energy: -46.924048242610 gnorm: 0.000494757050 xtb: 6.6.1 (8d0f1dd)
N            5.11426280804378        1.16377732218439       -0.18045413481519
C            3.99986629588697        0.88791912204984       -0.10078567789709
C            2.66166887004831        0.50648125115128       -0.00836395200741
C            1.53499143845512        1.29386586869918       -0.32383525222349
C            0.37188514393503        0.56082344134658       -0.12796509828478
C           -0.89759821629977        1.17825953889867       -0.07024620704713
C           -1.11024569964329        2.54355729292025       -0.12104911092832
C           -2.48015612048663        2.76587604754634        0.13949085718971
N           -3.16000622826054        1.66204178461906        0.32854937188929
C           -2.27158023317937        0.62473247956904        0.15673042858393
C           -2.80891913651703       -0.61091575767337        0.03101092717941
C           -2.17069173903669       -1.84007578152109       -0.37372183436960
N           -2.90219706014599       -2.62699346622660       -1.19447765344332
N           -1.06290139782713       -2.33825121035384        0.05946845846960
C            0.06899883527889       -1.92331232775345        0.57320370460248
C            0.79330878859557       -0.78092893586506        0.32053065085913
C            2.21692614441970       -0.74938700496701        0.43577776804743
N            3.03393599160277       -1.74589197270723        0.87072366394429
H            1.59499790939770        2.31486935623365       -0.64824724096679
H           -0.38192025485963        3.31511710263447       -0.27054218954759
H           -2.96818302219499        3.72406903045206        0.19929749600807
H           -3.88842104527728       -0.64683427500527        0.11176995969491
H           -3.78583548228869       -2.31075037578680       -1.55038485028017
H           -2.50512405329084       -3.48336747286778       -1.53928512384279
H            0.56701588796347       -2.71120927961661        1.13689521754136
H            2.67787549857505       -2.68142327142970        0.95298129443348
H            4.01819459440474       -1.64802554553012        0.68426758791066
