27
 energy: -42.911154760730 gnorm: 0.000718021376 xtb: 6.6.1 (8d0f1dd)
N            4.86255038649260       -0.08346341985898        0.25336254826314
C            3.76225888182622       -0.38633428040842        0.10153520525492
C            2.42768134764007       -0.75182019948324       -0.06046092630425
C            1.95399907857251       -1.98643346762098       -0.43443109340972
C            0.54349132833732       -1.93739639068781       -0.48204237747970
C            0.09257399576157       -0.66912092698432       -0.16515021985106
C           -1.28657709594003       -0.35785161386096       -0.02744019622032
C           -2.26792020028395       -1.32220051928823        0.17019330375110
N           -2.11578331104727       -2.65020270649958        0.48816973355025
C           -3.56183808829701       -0.72957139375313       -0.01354173550129
C           -3.40449294081505        0.57741893529274       -0.33496100843095
C           -2.00421967614290        0.91433357153501       -0.26695641461435
C           -1.66026671489253        2.22966678409439       -0.31267807403432
C           -0.49799017076198        2.97808859650106        0.01274712014847
C            0.78413431829012        2.66488181489805        0.33836266871793
C            1.54713645001136        1.46762825565896        0.33271709784115
C            1.29633351922284        0.15759523676776        0.06869786626912
H            2.55422214296656       -2.85027153177451       -0.65920022493366
H           -0.07009486378823       -2.75945377267033       -0.79686484857340
H           -2.93410371665705       -3.08543722720006        0.88587224698722
H           -1.24946017864764       -2.89407545761337        0.94485707944617
H           -4.48879559069212       -1.26577034409376        0.08878078035218
H           -4.18350484354828        1.29336303233883       -0.51982821800161
H           -2.50184072133014        2.87619481160390       -0.54556803449817
H           -0.70234685556984        4.04391792084791        0.03532203725421
H            1.39063232233935        3.52572964339461        0.59971066095021
H            2.59882554935359        1.66169323686422        0.53045853256625
