30
 energy: -55.699068839165 gnorm: 0.000735671215 xtb: 6.6.1 (8d0f1dd)
N            1.46935144526264       -4.04533872627979       -0.85034938545642
C            0.94863780629704       -3.04323470189878       -0.62498155398733
C            0.16505885144257       -1.92524544733108       -0.34027987457647
C           -1.21519857797126       -2.10309501163256       -0.03861615434859
N           -1.86792096364932       -3.26733623913560       -0.03799006840359
C           -1.76367237945139       -0.83991546029659        0.26944195971065
C           -3.09781437678040       -0.69307869214681        0.65227591742076
N           -4.19645598054239       -0.71192426624795        0.99250520876272
C           -0.75395183929694        0.14062210711617        0.14853400434030
C           -1.06516776129250        1.49131366055219        0.06018511465040
C           -2.42147154887272        1.86141503591289       -0.05717660183759
N           -3.48519695145241        2.26992433873320       -0.20945136388362
C           -0.17357505466887        2.62275325275683       -0.02237862684148
N           -0.57235293700559        3.67760141318224       -0.76180004879475
N            0.89540676526486        2.78865638622907        0.69931373930969
C            1.93271417477479        2.11526391031126        1.07631215541736
C            2.48498957464298        0.98768907043424        0.47165844829658
C            3.86303928172910        0.74660487719011        0.44782114897893
C            4.11131671044553       -0.38068231934618       -0.33677601451246
C            2.90095795828652       -0.92187292283107       -0.73110168239970
C            1.84127129476392       -0.12145112165495       -0.24414963811805
C            0.51994829837238       -0.57342315918854       -0.16603838925390
H           -2.83678620425379       -3.30041422859327        0.23250622681577
H           -1.38250374258236       -4.11903219771296       -0.26620881232083
H           -0.04077066841838        4.53027247511157       -0.71149171175782
H           -1.50335750516363        3.70524910167521       -1.14363541704381
H            2.52064330312311        2.61195823128232        1.84405933950922
H            4.60279177472532        1.37588624749941        0.90749922516449
H            5.08123682767863       -0.77476462164231       -0.57761793388671
H            2.78299507399228       -1.80810253864174       -1.32322781755511
