30
 energy: -50.885445200151 gnorm: 0.000835716340 xtb: 6.6.1 (8d0f1dd)
N           -4.65404016532160       -1.10763315848054        0.28561362271633
C           -3.58179373351326       -0.69427783727195        0.21017890608030
C           -2.30577216683679       -0.14485840428168        0.12621461368459
C           -1.06915460227525       -0.86456480658978        0.12402041667429
C           -1.10315370001976       -2.23493852936113        0.24104863789739
C           -0.19267565091598       -3.28071462519943        0.02661062913348
C            1.09431674434163       -3.34841640345366       -0.43844072073912
C            2.09673231570159       -2.39199234825577       -0.68871664176309
C            2.26764668782936       -1.07326215680231       -0.37063624437804
C            3.57469549436892       -0.51439693727479       -0.44340771436638
C            3.58849321129127        0.70531937963714        0.17495823253191
C            2.26632715319480        1.04055605011568        0.56766335098077
N            2.00208863485491        2.10362089958086        1.37695219003660
C            1.39562556284767        0.00369951198777        0.17702955897648
C            0.00764546479079        0.14553460610545        0.04855321136230
C           -0.63246020854691        1.39344823862707       -0.09156968861332
C           -0.08068119868430        2.63494038456037       -0.38916085721973
N            0.29987676022392        3.69119980939105       -0.65122204192518
C           -2.04997323158225        1.21744440592296       -0.05916986813919
N           -2.95488866537474        2.20257274815595       -0.17285129527685
H           -2.10306129597879       -2.59825635021723        0.46486451552867
H           -0.64514965996888       -4.25397465867391        0.18580898063985
H            1.43296916234327       -4.36080498148158       -0.63124755178906
H            2.99286614301047       -2.83506406111866       -1.11414885871344
H            4.42801698427681       -1.03259311578382       -0.84046673150952
H            4.44701573708247        1.32863024831292        0.34713101511779
H            1.04505978902826        2.36175180256692        1.54513708362490
H            2.65337266025849        2.86990196030268        1.35098575568824
H           -2.65512152544021        3.13314538684250       -0.40918200077366
H           -3.93378518528577        1.97607937423764       -0.21367177056734
