31
 energy: -49.787853121817 gnorm: 0.000489878247 xtb: 6.6.1 (8d0f1dd)
N            4.06116922229610        0.85608144632825       -1.31865126447143
C            3.06177047686115        0.74014328782897       -0.75801633333010
C            1.81666655421313        0.62455942478266       -0.10858905060006
C            1.12563379645139        1.80281314480161        0.08991615151240
N            1.73644900165375        2.98253785896501       -0.25026114119247
C           -0.11066293283141        1.98705464823659        0.80023254927544
C           -1.28154970492086        1.31377626797479        0.74503649663998
N           -2.36999150214197        1.84390329548616        1.44781364508977
C           -1.63596061829577        0.16110872176974       -0.06187850497739
C           -2.88593767516687       -0.00172853268216       -0.63345361498599
N           -3.83629389629632        0.95095583204944       -0.84264593224695
C           -3.01407575692875       -1.36418540577194       -1.10576108621686
C           -1.90689743993232       -2.04360210935954       -0.74877933195267
C           -0.96312969676964       -1.11544671157580       -0.13591491289326
C            0.29332032091215       -1.50349601247470        0.23860703639389
C            0.65974939979762       -2.87149120292621        0.50184634448779
C            1.98506521415448       -2.92069116751521        0.78624778103637
C            2.54139260225744       -1.60994590068002        0.62386294850717
C            1.54328161154800       -0.72314642445468        0.33273835047419
H            2.58242682978506        2.94198200794064       -0.79476539169507
H            1.17401192409365        3.81065791818187       -0.33326301601126
H           -0.11454289122110        2.89507625779430        1.39695402454911
H           -2.12059229497823        2.53357542048207        2.14258379812323
H           -3.01200859389150        1.15035490149764        1.80366776018315
H           -4.76645620354956        0.65164106485202       -1.07738008181045
H           -3.73706010610702        1.81909324174856       -0.34161856070310
H           -3.86903292213176       -1.73672802871026       -1.64060472173898
H           -1.67844319044296       -3.06736386669845       -0.97233796856503
H           -0.04122372503071       -3.68194873002331        0.56618377311725
H            2.54742149007951       -3.78842198222872        1.08186513347277
H            3.58580982943293       -1.37326023512025        0.71564347762971
