30
 energy: -54.905659490257 gnorm: 0.000912324366 xtb: 6.6.1 (8d0f1dd)
N            5.65370133126845       -0.25084428634058       -0.42040804164760
C            4.51435032790249       -0.19166265997806       -0.27813343417298
C            3.13084883389588       -0.12819849410248       -0.09356136619512
C            2.32425561456862        0.99444718746563       -0.23809225210788
C            0.98283530226003        0.61780476359086       -0.04412449191406
C           -0.05967643108204        1.55237602929184        0.01180576368837
C            0.00203778689917        2.89949007059605        0.28182079470082
C           -1.34329327380730        3.34564599850653        0.39253739491170
N           -1.74633603991600        4.57094291133332        0.73322739788475
N           -2.24336893811914        2.37839987084350        0.12767385099027
C           -1.53353135855692        1.29030751396782       -0.16160094592459
N           -2.07151331284422        0.27079357015204       -0.74792135273007
C           -1.90416480208547       -1.00346298821915       -0.88605017648202
N           -2.47528052002643       -1.58741822766619       -1.95874891936233
C           -1.31099966529487       -1.86504275403862        0.10915022647215
C           -2.03786248419867       -3.02799370324335        0.39749258611624
N           -2.63049348337166       -3.99078813830656        0.61759101898535
C           -0.06008308364842       -1.69823900954736        0.70648433539410
N            0.29306664657955       -2.57705488932416        1.66944523487245
C            0.98066940923072       -0.79810517396106        0.28652294875309
C            2.30625028343907       -1.21511843803452        0.27868806791749
H            2.65824787982738        1.97803781145987       -0.50847545535330
H            0.87075210959597        3.49852538693418        0.46647201550192
H           -1.08447264447510        5.30957518173406        0.88811297764911
H           -2.73253347987422        4.75020246963795        0.80541321472340
H           -2.55762010879327       -2.58884774944802       -2.00103168562036
H           -3.03835971100602       -1.02313761967777       -2.57262263900766
H            1.23186524031102       -2.56859304659073        2.02728398746090
H           -0.31260700967361       -3.34828103679057        1.89888815057127
H            2.66680209949711       -2.21550531574525        0.44229861752368
