25
 energy: -43.472074890409 gnorm: 0.000419545647 xtb: 6.6.1 (8d0f1dd)
N            3.67538131029377        0.14449187304070        0.89544025524233
C            2.68576748593290        0.62670998454963        0.55605051412125
C            1.51302112887093        1.25859316450235        0.14523082306990
C            1.38094930283218        2.63130800787139        0.05603390871332
C            0.04047118032565        2.94190589814213       -0.23565588203385
C           -0.72424683431073        1.79184429831666       -0.23674496316276
C           -2.08122413372377        1.79921997885739       -0.65152004013839
C           -3.06676370789920        0.87876857239753       -0.44350538284329
N           -3.13228696445419       -0.07707943808706        0.47719697504320
C           -2.38197505869882       -1.01342836015495        0.88201606539669
C           -1.16594545207959       -1.48479677327326        0.28642049780319
C           -0.74096051243996       -2.79901236550576        0.26773861112068
N            0.49284922528324       -2.95741775669137       -0.27249801480877
C            0.96573897276024       -1.75101277987978       -0.48343953688782
N            2.08236041238469       -1.55589589897338       -1.19334269542849
C           -0.02672472878712       -0.69448649106960       -0.11811960786718
C            0.20717074745872        0.65364852478584       -0.04005663484388
H            2.17392560359682        3.34181350472567        0.20610964156896
H           -0.33947573920157        3.93403119901795       -0.39534798193857
H           -2.36613681464986        2.68369897730053       -1.20830550854182
H           -4.01850012571633        1.03057664662635       -0.94363489189076
H           -2.74919709258436       -1.57120366007756        1.74067194746542
H           -1.29404812320803       -3.66051677814753        0.59510235493419
H            2.61965362842909       -2.38251675474335       -1.40154643283025
H            2.56420556498512       -0.67252846563064       -1.17462248596325
