32
 energy: -53.527283901494 gnorm: 0.000809361331 xtb: 6.6.1 (8d0f1dd)
N           -4.65457566343028        1.32017094939091       -0.58755944598970
C           -3.70465882382136        0.68968518876050       -0.41591068111534
C           -2.59987608733412       -0.12760139975021       -0.22406636653178
C           -2.64786510852482       -1.56681106566540       -0.23778124611844
N           -3.76434361974084       -2.26890755897999       -0.51677386839663
C           -1.38442260637512       -2.06268642813920        0.03906315883342
C           -0.47776370010504       -0.99293057326424        0.14902214439126
C            0.89428451911628       -1.11153036257722        0.26978693255222
C            1.50247429073452       -2.34018031470332        0.69134633246379
C            2.85389930666008       -2.19547782690663        0.68719701216588
C            3.16663590992725       -0.89804008806494        0.18032004242036
N            4.47049336597744       -0.47650173235792       -0.01876175432089
C            1.98536198880276       -0.20459694935270       -0.06762671779472
C            1.97160493078236        1.07420095416836       -0.73916592166836
N            3.04265597940235        1.27477586865611       -1.58921600689957
C            1.17099806529422        2.15576510028154       -0.50139349266382
C            0.05104557216306        2.25628612306396        0.38383287110075
N           -0.05218699507227        3.39624625299652        1.11307898903122
N           -0.97435311678546        1.47103521909981        0.44252981307547
C           -1.28975292354422        0.25691458432831        0.05952014206815
H           -3.78030835361362       -3.26452476210367       -0.38860779517080
H           -4.63363301637991       -1.78017297724831       -0.64207180016186
H           -1.12948273405637       -3.10444190998524        0.06731333933941
H            0.95601300365487       -3.19704841761797        1.03498055272137
H            3.58669005725431       -2.91589475989421        1.00442546649473
H            4.60203577256944        0.52436269293349       -0.02335068486697
H            5.14785524181962       -0.96907940773751        0.54438773684324
H            2.98034042492733        2.06579426409354       -2.20980227660534
H            3.45954874523930        0.44843826740892       -1.98475314792188
H            1.45565339987569        3.08593473466193       -0.98028362738756
H           -0.87256876624101        3.53930494507120        1.67447755702786
H            0.68128364991908        4.07918949514419        1.11438541028812
