31
 energy: -54.620928553712 gnorm: 0.000635322141 xtb: 6.6.1 (8d0f1dd)
N            5.09063687739384        2.11549709208858       -0.31070221620431
C            4.14560562892689        1.47050727789085       -0.18524495535683
C            2.98236844001418        0.71938316146126       -0.02939733474424
C            2.88352184409578       -0.68595500725382       -0.01941428119705
C            1.55893962946123       -1.08081810425491        0.11149735196892
C            1.23987578952931       -2.44984284324498        0.31581647742642
N            2.27300851724397       -3.21361839517984        0.76155998381526
C            0.08103832656425       -3.19210627039639        0.03345926385281
C           -1.19603960275617       -2.90322470860250       -0.39853217970848
C           -1.97059822006162       -1.75717138365353       -0.48966175706863
C           -1.77920597746386       -0.42597241516260       -0.15129026607440
C           -2.86349020533779        0.47145625618882       -0.14495432326927
C           -4.20425282747068        0.21826526962714       -0.40098204817828
N           -5.32621261097825        0.05613540584993       -0.60594073714864
C           -2.33827950877379        1.74356967684479        0.22115858392555
N           -3.04476665071953        2.87328022035328        0.35795730020470
N           -1.02192008435198        1.69691783466573        0.40080875790258
C           -0.60265057420880        0.41836840741016        0.18573582181989
C            0.75164426779792        0.15664294722305        0.17379681477376
C            1.69826775075481        1.24848949982798        0.16206660767283
N            1.39580800206992        2.54799505350914        0.28863339526563
H            3.73570500718006       -1.32617504488017       -0.16349397140341
H            3.13004233960497       -2.79192643581005        1.06747536180288
H            2.15407318471691       -4.20349796721230        0.88250848610901
H            0.25439949974057       -4.25962079070075        0.13743287172619
H           -1.75486006684109       -3.79613103107759       -0.66006573133379
H           -2.98764108319711       -1.94989946619073       -0.81858505730905
H           -4.04460422560860        2.85311793293509        0.26171454592682
H           -2.59100912539586        3.70966591066201        0.67894452958755
H            0.39781818974558        2.74691624859713        0.34503022696567
H            2.09262122872292        3.24069871478334        0.07504981574836
