31
 energy: -59.436625842826 gnorm: 0.000474940368 xtb: 6.6.1 (8d0f1dd)
N           -1.35460891338896        5.02230903675041       -0.84679563202416
C           -1.05127726948033        3.94198615035216       -0.59508774517952
C           -0.70999637078621        2.61463401153189       -0.27242992041962
C            0.59913104223396        2.24468674815123       -0.48331987617199
C            1.36828958083976        1.11212230663416       -0.18645863523052
C            2.75693479466130        1.20959186717128       -0.27872341434670
C            3.36911451116312       -0.01546625859714        0.03652737083265
C            4.73773553129780       -0.28941100133792        0.08029715885307
N            5.85602455033434       -0.55377047028621        0.11787163637444
C            2.35522496935175       -0.95397030540057        0.28332921394460
N            2.49987978153877       -2.24147393799374        0.59700878671107
C            1.07111149038010       -0.28643279253772        0.16276946390470
C           -0.09134872058689       -1.01026368832186        0.18702013202851
N           -0.08618635008487       -2.37203405980279        0.20093073780777
C           -1.30078930251316       -2.77692330314530       -0.15862804145779
N           -1.61413896866521       -4.06515658956050       -0.30772321273599
C           -2.21284732400714       -1.68513211280095       -0.34890298604137
C           -3.55481811948452       -1.82708796002803       -0.68187937402733
N           -4.65631023473998       -2.00469702444259       -0.96261408247669
C           -1.49888778588316       -0.53121201234135       -0.02183091550557
N           -2.04429108995641        0.61553724284193        0.25241919070325
C           -1.76004461768104        1.86693113595485        0.39368798911267
N           -2.59880266913587        2.58098609887767        1.17393790266412
H            1.20338648892407        3.05075475291287       -0.89203262735951
H            3.29412067669095        2.10294478192980       -0.54297937693203
H            3.41372323059898       -2.66215189839593        0.58730694458438
H            1.63783673110880       -2.78581330844304        0.59792448895254
H           -0.93022535950277       -4.77500169325371       -0.11355795963628
H           -2.53788972719867       -4.32519197628330       -0.60705776003199
H           -3.40946672817103        2.12212416046824        1.55437929838854
H           -2.56074648325737        3.58645887309709        1.17027927471501
