32
 energy: -58.357925356516 gnorm: 0.000485792467 xtb: 6.6.1 (8d0f1dd)
N            4.04684027876361        2.43975293602423       -0.71712238130637
C            3.21942572027725        1.67113204584115       -0.49440314525560
C            2.26374101547164        0.69048089682139       -0.24470165338885
C            0.90659545365224        0.88570646344474        0.06362551152953
N            0.43148688461505        2.04374321975039        0.41724653962117
C           -0.77484135341280        2.55889058817954        0.47129175785260
N           -0.97972554411416        3.51416065033303        1.40577046085937
N           -1.71923824671754        2.39964348543509       -0.44496249331644
C           -2.20878533119966        1.28573594218755       -0.92017180553001
N           -2.95909963473915        1.39865761400803       -2.03558257371205
C           -2.18605686620574        0.00603440614425       -0.27007222975768
C           -3.28805882162040       -0.83215260620187       -0.24557574043792
C           -2.98857573046619       -2.00741889646394        0.46307068936684
C           -1.65808919731893       -1.97561868529710        0.81940246279000
N           -1.05647014439957       -2.84864205991388        1.67881289758870
C           -1.07798798860390       -0.72716294065532        0.34572467627765
C            0.27257390891078       -0.46530304300518        0.22047570800326
C            1.34217960874068       -1.39621581663253        0.10762433690863
C            1.32653483957505       -2.78421748475661        0.07911850903533
N            1.41700454188321       -3.93473974156808        0.03592681024258
C            2.53113787301249       -0.70011688801687       -0.22616697924124
N            3.71635278077617       -1.26623085776266       -0.48411846120424
H           -0.18291655743195        3.85219869354539        1.91724173683149
H           -1.78311173510458        4.10968970345226        1.30933365355628
H           -3.49080791651719        0.61414621211050       -2.36589290746714
H           -3.12638638918902        2.31333586359873       -2.41719764569735
H           -4.25936951785059       -0.59661629722200       -0.64522731732067
H           -3.68368618762051       -2.79101315284283        0.69932282287495
H           -0.05112685813664       -2.88803645297181        1.70099819097119
H           -1.51225669417974       -3.74075385015497        1.78388967743021
H            3.81417274144480       -2.26719598264984       -0.46385413195636
H            4.49449096771115       -0.69471074716439       -0.76508657845257
