31
 energy: -55.409679743506 gnorm: 0.000955745782 xtb: 6.6.1 (8d0f1dd)
N           -5.36310607531954       -0.76876336227857       -1.17323360719176
C           -4.30885584139091       -0.47004565993716       -0.82911179255495
C           -3.03488997636558       -0.07868592861580       -0.40199182209099
C           -2.71084369061865        1.19577981006829        0.11115324752029
C           -1.34075451192569        1.25982449005910        0.33958646717149
C           -0.75249748965348        2.41277506627629        0.93122524857980
N           -1.57800267309357        3.14263194697675        1.71750187902641
C            0.49825328477155        2.99428179771846        0.68071505672565
C            1.64379939026675        2.59038832752763        0.03018351542429
C            2.20101401616015        1.35386012114030       -0.30486071277700
C            3.49572918800592        1.49299135342941       -0.87093190831998
N            4.52990189139904        1.64009223268244       -1.34674151245733
C            1.82483060051264        0.01837816666218       -0.06754908602654
C            2.75944665774719       -1.00998854347498       -0.10305933779426
C            2.11806829001102       -2.23352534136402        0.13694408901889
N            2.68896472523511       -3.43773315412904        0.24533905099131
C            0.71783898476507       -1.97988992751494        0.25791743700159
C           -0.17910987812331       -3.00746638951577        0.54870681889858
N           -0.82319060652751       -3.92410208058119        0.81335329153865
C            0.48936927954120       -0.60244428746752        0.13170725429142
C           -0.79273101126303       -0.05707115534986        0.00337631649898
C           -1.87838983075335       -0.84941826239004       -0.41719281526096
H           -3.41957432629376        1.99893077792242        0.20767879247380
H           -1.29625813712954        4.04411784055295        2.06042540990609
H           -2.51109987390053        2.82287399421593        1.90617224205569
H            0.54701014839342        4.02457977171066        1.02174240835269
H            2.32574962015352        3.41144486592499       -0.17527045052684
H            3.81586876468108       -0.88785951199416       -0.25144561042006
H            3.68237496134533       -3.54565355272102        0.13961589900674
H            2.12136467654299       -4.24867628044436        0.42759773054770
H           -1.81523708327336       -1.86073356398967       -0.76860616760937
