27
 energy: -51.730719785907 gnorm: 0.000746052279 xtb: 6.6.1 (8d0f1dd)
N            3.08875407942301       -3.62332001469224        0.63375004217753
C            2.48615188403190       -2.66714871476790        0.42163044725994
C            1.75503549553647       -1.49773886000804        0.14116570609995
C            0.39341443128438       -1.56446413317484        0.31650466873374
C           -0.68509521695886       -0.70911794956119        0.04794988537179
C           -2.00198307867909       -1.20933070809187        0.06433169398541
N           -2.41997444835199       -2.48303768358657        0.18983424414230
C           -2.91961942251547       -0.11814416688070       -0.14653428597831
C           -4.30725610236809       -0.28616724737008       -0.21448162061864
N           -5.43810714335766       -0.48266326798967       -0.25644188920913
C           -2.19680627171578        1.04445855728901       -0.24531121142560
C           -0.80519920393463        0.74174487915115       -0.15097023640003
C            0.10250240356182        1.77010452769568       -0.09240529526565
N           -0.26884120966209        3.05922203435690        0.07679092631713
C            0.82508962014405        3.67632462166427        0.48053630455476
N            1.95189919740249        2.94777537453169        0.56804326933134
C            1.60046042708761        1.74479094964588        0.13038634391495
N            2.44859778297669        0.82771157549157       -0.19878353984465
C            2.53007012509689       -0.42690583306889       -0.47327769273697
N            3.49369346453925       -0.80773913732445       -1.33461043623554
H            0.07860020072244       -2.54048131220205        0.68015521719890
H           -1.78294734229284       -3.22497627559709        0.41989318822268
H           -3.40696184566329       -2.66715215549917        0.24959798090243
H           -2.57475888064665        2.03917955374328       -0.37960700515285
H            0.82348048370896        4.72216076213517        0.73052250542894
H            4.11608049003178       -0.10724943855378       -1.70174150337342
H            3.73686562439917       -1.77945632143735       -1.42931975690117
