32
 energy: -52.727203440255 gnorm: 0.000853080205 xtb: 6.6.1 (8d0f1dd)
N            0.56622664941894        3.78223756478829        1.07501261082496
C            0.31516878622673        2.61183037632177        0.39998455792217
C            1.37103324502078        2.18515699966262       -0.48016506214116
C            1.86931246686357        0.93512573629978       -0.68082938275034
N            3.02658408542635        0.85202831520952       -1.45865895683718
C            1.47429385117768       -0.32333715305454       -0.09316298179521
C            2.37433553719881       -1.37312147544690        0.11331313277859
N            3.74323716323099       -1.33968473443903        0.00006889258202
C            1.67571704889110       -2.56699335512910        0.45107376716593
C            0.33619237569956       -2.30466550021859        0.40783224653985
N           -0.70336237312417       -3.11618684326452        0.69209029407600
C            0.15051866121313       -0.87100722472205        0.12631324927426
C           -1.10345712102204       -0.32755842517574        0.06448166360305
N           -2.22011956755177       -1.12084433688421       -0.08707884974300
C           -3.23628424238232       -0.30439020741558       -0.30839476612558
N           -4.49420639146083       -0.77112025296684       -0.51614604298415
C           -2.87375750607437        1.06981159165401       -0.22371961390826
C           -1.52937195858785        1.09594081579353        0.05796214897210
N           -0.88471701286785        2.16872119729463        0.51815186709191
H           -0.11583360297046        4.04105765716873        1.76902534462402
H            1.52303066405772        4.02810473092483        1.26179160191390
H            1.91677629330993        3.00351670181654       -0.93769847499861
H            3.15150048322695       -0.02659408959158       -1.93755090927074
H            3.19697041436791        1.65693383125999       -2.04328951323224
H            4.16622426501421       -0.42482633983059        0.03798094594430
H            4.23206268325460       -2.06005993368681        0.50792212521088
H            2.14345280760780       -3.50679300378087        0.68099325450342
H           -1.60905507002499       -2.72167509115990        0.43679778831523
H           -0.55188923851907       -4.10787383034911        0.74377531211340
H           -5.16247841194640       -0.15212009589325       -0.94109495010220
H           -4.59059949451261       -1.75420725278126       -0.70805704276281
H           -3.53753964786092        1.90590069219474       -0.31741350210503
