30
 energy: -54.907231103004 gnorm: 0.000308134641 xtb: 6.6.1 (8d0f1dd)
N           -5.00703642701053        0.42923825074916       -0.80223994048112
C           -3.88157330740328        0.34547512694223       -0.58220945536690
C           -2.52673555883729        0.15128970256209       -0.30544019271407
C           -1.47898791943007        1.02257557572831       -0.49245039366215
C           -0.25729948832903        0.36483717049804       -0.15863186006670
C            0.96058138025857        1.03013363765704       -0.11932314646233
C            1.14908836168328        2.42560189111426       -0.04136183990461
C            0.19382917638119        3.44038490689338       -0.07003053262104
N           -0.54920316762012        4.31982887599207       -0.08847512916946
C            2.51861409367391        2.68477725232037        0.20497067791624
C            3.23455370950401        1.50622898108658        0.22352689831350
C            2.35256292243666        0.44694585048722       -0.03672108141389
N            2.75412701171367       -0.73474965665346       -0.40563453142965
C            2.15211174118506       -1.89618227633296       -0.53450718563359
N            2.59790369806474       -2.70043813450060       -1.52303290593759
N            1.34134534609348       -2.43998484678363        0.36416095691839
C            0.22055247801219       -2.00215852311284        0.85364541298114
N           -0.29452481966528       -2.71618056107434        1.88413758731430
C           -0.61918955983108       -0.98022417666779        0.28439586803622
C           -2.00285399632818       -1.08284578095629        0.22645493616119
N           -2.80119153167336       -2.13000277214510        0.60278856906775
H           -1.55509702745210        2.02013059903875       -0.87711401355977
H            2.92042580051895        3.67099997197730        0.35996093683717
H            4.29331888484927        1.39981347475219        0.35414472796303
H            2.34210105999606       -3.67167476108725       -1.51552141699349
H            3.39162600969799       -2.40322449459559       -2.06303976120873
H           -1.06085060110492       -2.33146020510995        2.40893597353296
H            0.31318968075631       -3.37836612358779        2.33708870276450
H           -2.37843115271998       -3.04470837689663        0.62953978607446
H           -3.74543290942116       -2.10219938899245        0.24818953634488
