29
 energy: -56.762953645393 gnorm: 0.000686434486 xtb: 6.6.1 (8d0f1dd)
N            5.74041464568321       -0.37192509476548       -1.08964199342909
C            4.64892722231698       -0.19159182396104       -0.78483919584411
C            3.32325082261873        0.06519618024075       -0.41022818389497
C            2.87944127537612        1.28903435487792        0.19898284873152
C            1.52576719153163        1.21736095325803        0.36533696604521
C            0.70423676622194        2.21177848631555        1.01605318870160
N            1.14645006607884        2.76156280362134        2.15508576361856
N           -0.34367732532306        2.71060606216966        0.44705970942879
C           -1.29279090353869        2.36138297159745       -0.36123258831208
C           -1.96209603200482        1.13106190502070       -0.42518779983084
C           -3.21875872641931        1.20524571252859       -1.07664954068261
N           -4.19266705456466        1.31747364506917       -1.67138907876691
C           -1.54475322981674       -0.13830211485987        0.02053655856985
C           -2.42851241930070       -1.21665953461751        0.17347187629577
C           -3.82397341295360       -1.14914052841150        0.29089911687650
N           -4.96056612336837       -1.13687179811021        0.44912925333455
C           -1.68871184255283       -2.40966331786009        0.30033962434616
C           -0.33659924793110       -2.11907376556186        0.17031441055053
C            0.66979716797843       -3.08292890127023        0.31869060530845
N            1.45583609521252       -3.90800778707119        0.45947429031785
C           -0.16565357564474       -0.70713542414486        0.04869921007688
C            1.07447763601054       -0.10482689161169       -0.08649641113977
C            2.24758917878017       -0.78432858263272       -0.52957163440716
H            3.51915197501860        2.11655806484174        0.44446638933661
H            2.03418608462224        2.48835108319170        2.53850002950180
H            0.63236795959732        3.51387679550687        2.58269399880555
H           -1.71778748245727        3.18173916413791       -0.93248535842999
H           -2.10690015530277       -3.38263368761175        0.48459880610874
H            2.27095506353071       -1.76724153178817       -0.95716454331667
