35
 energy: -67.888208843592 gnorm: 0.000912543482 xtb: 6.6.1 (8d0f1dd)
N           -0.94492886044127        4.89735328128523       -1.83532621068883
C           -0.70369942828530        3.93679721157039       -1.25609632474999
C           -0.39054885071786        2.75572735198200       -0.54430268832012
C           -1.35695011455516        2.40042251551353        0.48054184763418
C           -1.81214967580697        1.17603962875579        0.79099806869711
C           -2.74236759386871        1.04943270289889        1.85379617873067
N           -3.46203307752410        0.91976766185045        2.73662302383339
C           -1.52755652038250       -0.09833925119925        0.12616938141392
C           -2.53408988894339       -0.99176693939650       -0.18631920819818
C           -3.91588673644614       -0.78112963151082       -0.15173194816455
N           -5.05770820568665       -0.66209013417249       -0.18300955451533
C           -1.93645531209348       -2.23584378813283       -0.62326847374388
N           -2.63142378143501       -3.29893025351642       -1.06065087655180
C           -0.55864076726990       -2.10983940417821       -0.47800913227051
C            0.33346965533232       -3.08785672111421       -0.91140480032621
N            1.02978916848405       -3.93262753008295       -1.26955172049292
C           -0.25965416438380       -0.76315813292916       -0.04128232114331
C            1.00804636917335       -0.22411357205942        0.13607276626961
C            2.18341096217742       -1.02376754399735        0.53798988468050
N            2.13401377761002       -2.22865104467843        1.11179880685815
C            3.31002926794539       -0.22588403214357        0.42444355954294
C            4.62347528573568       -0.57018030613220        0.73877694057459
N            5.71435883981419       -0.83607556778465        0.98711716661309
C            2.89098365584375        1.05966252228548       -0.05914937422522
N            3.74057859928387        2.05736112325657       -0.32364078877157
C            1.48242491408230        1.08367600581818       -0.17037421263307
C            0.82440701809994        2.20119970046827       -0.77860519406231
H           -1.77288632638698        3.24576488486318        1.01879969888398
H           -2.14756453920329       -4.11188411459156       -1.40100517456094
H           -3.62515790138034       -3.22627610753860       -1.19569658109191
H            2.99869031389846       -2.69531123960614        1.33341447915136
H            1.29512419997848       -2.78353757935051        1.07930395015925
H            3.41149532465946        2.95117176593598       -0.64470652898340
H            4.73123188148303        1.90233261027673       -0.24158530239880
H            1.44152480971062        2.73365290565559       -1.49882789275084
