26
 energy: -47.203734546629 gnorm: 0.000729046565 xtb: 6.6.1 (8d0f1dd)
N            4.05806422087800        0.93842516363184        0.32516728051484
C            2.91949275068397        1.09584528316552        0.22229400017984
C            1.56900243800910        1.39118383170315        0.10179479842559
C            1.14753362474651        2.72953801159981       -0.14566165431254
N           -0.13860060125712        2.84768911399477       -0.30333909963243
C           -0.68065534844511        1.59160570667616       -0.15893702430331
C           -2.02712688891290        1.54132991736293       -0.03388068313294
C           -2.88086487733510        0.41295219558428        0.27105273475015
N           -3.86771501610252        0.64868288585303        1.15687794606052
N           -2.88014539181856       -0.73121896117520       -0.32424292430898
C           -1.99160087837043       -1.48880008271092       -0.91887721497838
C           -0.66529969125107       -1.66318290324790       -0.59208277856786
C           -0.02086513084521       -2.91106458482267       -0.74519039416927
N            1.14585441135173       -2.96291514072174       -0.13391858418105
C            1.39228961079270       -1.72912023329104        0.36576735323642
N            2.46694195161554       -1.57590954537147        1.15832285855303
C            0.33275735120557       -0.80850013831510        0.08079759798283
C            0.41645912544537        0.58204501050783        0.04465658480715
H            1.80201448932128        3.58141975245241       -0.21512292794621
H           -2.51682609095435        2.50698990740450       -0.05993177098984
H           -3.97006207135482        1.55167894057207        1.58345147524088
H           -4.49602911904872       -0.09497629458990        1.40762257609328
H           -2.43180425760900       -2.21155606662023       -1.60102836022732
H           -0.43409550362475       -3.78398362836450       -1.21725823131804
H            3.12611540847550       -2.33739328226665        1.13332324580993
H            2.83172795300379       -0.66162143971059        1.36963524841377
