35
 energy: -62.289830465456 gnorm: 0.000819597472 xtb: 6.6.1 (8d0f1dd)
N            5.39051075008766       -0.77469697290318        1.22102873921009
C            4.30308728578070       -0.75894404276005        0.84395425323925
C            2.98949798566514       -0.71648202248528        0.38198396004867
C            2.30474849790479       -1.76139693922245       -0.29521769877674
C            0.99550082738126       -1.39312067082724       -0.51380618059816
C            0.11280525190938       -2.21241335066934       -1.30527759819203
N            0.73227429300490       -2.87346644122274       -2.31750544707516
C           -1.20666057037955       -2.52061378714892       -1.07232804215501
C           -2.13105186456727       -2.06787336984253       -0.10659643655948
N           -3.06747481675182       -2.98320641654673        0.25597898020569
C           -2.30383830199644       -0.76347047399117        0.39178170457763
C           -3.42086447911946       -0.58791817807486        1.23342521116224
N           -4.31865987581605       -0.46568209410476        1.94447673213968
C           -1.68719797568641        0.46647639977087        0.03501677930204
C           -2.39371571251683        1.65318751245357        0.08106842736205
C           -1.52795227887426        2.73408140104512       -0.18643667963418
N           -1.88002849612709        4.02235954770439       -0.31116375486040
C           -0.21411682563152        2.22523433250114       -0.30387959017472
C            0.85692110597789        3.02893011902682       -0.67496686751503
N            1.69730327496198        3.75805573435382       -0.98086518804938
C           -0.25736858916699        0.81245655698347       -0.17031097052893
C            0.83794230592634       -0.02190177077912       -0.04765685682326
C            2.12463276345288        0.37012034597106        0.49493491453580
N            2.39406573109100        1.48040314762995        1.22965267491911
H            2.75375408563452       -2.70870397658594       -0.53626780430769
H            0.24723043073252       -3.57532884225231       -2.84769599142377
H            1.71049369548417       -2.72613116235296       -2.48591798714652
H           -1.57917062434736       -3.35711435586020       -1.65639950316276
H           -3.00857500344205       -3.92880422485459       -0.07427803970494
H           -3.81512264535159       -2.72944392657861        0.87887570509253
H           -3.44998558375949        1.74563071141227        0.25195082553028
H           -2.84550120543547        4.29248491658456       -0.25220012964956
H           -1.19159709628636        4.71087917095341       -0.56320727211209
H            3.35600430854236        1.60488663067585        1.50280669529764
H            1.87184920510976        2.32396228939699        1.06655093712945
