24
 energy: -39.746859867323 gnorm: 0.000770515595 xtb: 6.6.1 (8d0f1dd)
N           -4.27254730737704        0.70468324062315       -0.00598873682516
C           -3.12777203782140        0.65554539212991       -0.00511605515355
C           -1.70083942098664        0.71044663504628       -0.00182928996663
C           -1.22632181715110        2.02967073854087       -0.00074882382785
C            0.02054634652022        2.61352240472473        0.00206947706877
C            1.33503360357591        2.14121206033682        0.00317423220511
C            1.96851723308710        0.91701523491780        0.00146803743840
C            3.37694430476825        0.88178256039756        0.00110594975474
C            3.81117480428734       -0.43237227159408       -0.00154115454680
C            2.70013895042106       -1.27388197658879       -0.00233086478792
C            1.52514870228813       -0.51517643935219       -0.00038269079972
C            0.26465760632793       -1.10785217854530        0.00069985053418
C            0.05740269371853       -2.49505228451933        0.00165842903787
C           -1.31365258051674       -2.71081208400958        0.00169115789425
N           -2.00943454475126       -1.57293447841031        0.00027829870480
C           -1.13031620585902       -0.55985835309788       -0.00008641568308
H           -2.03941175910861        2.75027935098029       -0.00197179157595
H           -0.02713667617007        3.69736192151617        0.00323065725326
H            2.05489491445783        2.95583250109683        0.00513739654625
H            4.00605524987682        1.75270632474734        0.00224919217436
H            4.83637827293499       -0.75669735538483       -0.00278092498452
H            2.75100293985047       -2.34507647745951       -0.00431701125750
H            0.80422528636954       -3.26231435172904        0.00270828859562
H           -1.82789806634228       -3.65551518566696        0.00272743830108
