28
 energy: -46.641892686135 gnorm: 0.000479206660 xtb: 6.6.1 (8d0f1dd)
N            4.94813710133111       -0.47952920695204        0.65416207453084
C            3.90554838572600       -0.04272352440745        0.43607803827155
C            2.64008878318628        0.47453388529398        0.18258025858673
C            2.29964298790321        1.79705926037713       -0.04319868765997
N            0.99638604213201        1.95949738545661       -0.29059972337276
C            0.38887747740244        0.75317941355267       -0.20425611893144
C           -0.99769622630070        0.69215918931099       -0.19004483840602
C           -1.76593943131346        1.89814003557823       -0.20648978214462
N           -1.28526716378249        3.11502874593028       -0.51619772922919
C           -3.09423879084158        1.59660682050876        0.13852535918381
C           -3.19571975103861        0.24635828979017        0.37532226694187
C           -1.95485248869235       -0.39624871497489        0.13163407243940
C           -1.85599750462357       -1.77573393984064        0.10391720786682
N           -2.91932782579536       -2.51172257668473        0.54088818644251
C           -0.85180418046879       -2.61939647513787       -0.50174728122836
C            0.49458732199320       -2.57412690175491       -0.58120669744546
C            1.46606128986944       -1.63697455826688       -0.14808460022982
C            1.42950656029905       -0.28549758914600        0.00770725000359
H            2.95843796561534        2.64832549516325       -0.03932618766602
H           -0.26126074992149        3.14955969768592       -0.53186527773160
H           -1.83474364701668        3.92451027145794       -0.28260206907550
H           -3.89163681586078        2.31398425864725        0.20831937170935
H           -4.12113078482551       -0.24016001618922        0.62577398482026
H           -3.63393408869776       -2.08099332712547        1.09725558989166
H           -2.83171595900507       -3.51107291948200        0.59249257595324
H           -1.29658239954044       -3.53300404035527       -0.88573323528419
H            0.94664723365172       -3.45918349678842       -1.01809691970016
H            2.45783100721504       -2.06711893824784       -0.03943457213675
