23
 energy: -39.244253217148 gnorm: 0.000682815362 xtb: 6.6.1 (8d0f1dd)
N           -2.04541409058842       -2.23723932013163        0.47277171600533
C           -2.01361798287083       -0.92012280389107        0.22834433318859
C           -3.10748155468614       -0.06894602591148       -0.02479600542711
C           -2.63642392512353        1.20447734522257       -0.25908017255301
C           -1.23363842944341        1.23872427841080       -0.10368008652915
C           -0.48556489751660        2.38309194676167       -0.24396777946667
N            0.66739934124272        2.68627318549534        0.30702255947768
C            1.81281945330828        2.17233058284084        0.53170667250396
C            2.40858497809945        0.98749113405666        0.03078074096809
C            1.81976385428592       -0.23432909209265       -0.14646507214877
N            2.61120238258961       -1.32138020932038       -0.34667768662458
C            1.81836301692115       -2.35875054544680       -0.17972064305243
N            0.53831588524732       -2.10328433460081        0.10435759118460
C            0.42816051039961       -0.75473033926137        0.09068380628663
C           -0.80922827811006       -0.14727395927738        0.18365848285848
H           -1.12547865535809       -2.68483275063358        0.42846418639923
H           -2.89067585332381       -2.75442737103848        0.30167710707697
H           -4.13460671508482       -0.38360436387850       -0.05963850466989
H           -3.23821955932082        2.06561555485884       -0.48683008991774
H           -0.97457798697719        3.24262395483390       -0.69729232806428
H            2.45080428405679        2.78030245093952        1.17265070261818
H            3.48964416754613        0.97736624366389       -0.02490782588293
H            2.17775650460671       -3.36994973909997       -0.26097989513109
