28
 energy: -50.648669970737 gnorm: 0.000638152734 xtb: 6.6.1 (8d0f1dd)
N            4.69757062560818       -1.30372357052202        0.25793864764416
C            3.59756585107213       -0.97579190583325        0.16394874978684
C            2.27853386664148       -0.54926695268240        0.05216664625630
C            1.86934607406308        0.82855660789826       -0.00498098471669
N            2.79083416157209        1.83396050044063       -0.00234817940471
C            0.47454718914377        0.91532730583941       -0.06346641801509
C           -0.19826192395663        2.15787570569919       -0.35381857478608
N            0.58355607614428        3.07534162703369       -1.01717765277186
C           -1.40579851531539        2.64346835783661        0.11386605403686
C           -2.41668043681305        1.99265109598688        0.83772313732354
N           -2.90639970845983        0.81917800910960        0.66882300415966
C           -2.60825622457203       -0.31939887356032        0.12412380043160
N           -3.51597123881014       -1.19806358885019       -0.29184220723342
C           -2.83265104640834       -2.34752039004053       -0.43873142596713
N           -1.54095479048933       -2.31588611476938       -0.20238436635924
C           -1.27374615737078       -0.99680406452578        0.07560770888343
C           -0.02547758191953       -0.45234986309007        0.00930132262311
C            1.14124121995586       -1.33967161555766       -0.01433500720098
N            1.03924598839506       -2.66563235112331       -0.02409842117840
H            3.72171354854930        1.57012228728066        0.28362231474707
H            2.48346627923982        2.74944038587596        0.28440122204805
H            1.33969714121201        2.72493402367874       -1.58090604294825
H            0.11955386228010        3.89796400066223       -1.36648500859279
H           -1.54212465299163        3.71346718034985        0.00103223278292
H           -2.96950405643871        2.59560997822329        1.55608986043401
H           -3.33278196018762       -3.25422215885235       -0.72975611169424
H            0.08530408090196       -3.03149685697174       -0.09496979786654
H            1.85796140935841       -3.24635332793666        0.02367255887717
