27
 energy: -51.730093210772 gnorm: 0.000577432588 xtb: 6.6.1 (8d0f1dd)
N            5.51304684896323        0.50281982865057       -0.26878899710546
C            4.37716561697470        0.41444054957195       -0.12741865660674
C            2.98053044651903        0.31553755577815        0.03311377250946
C            2.35792653070915        1.27545826873272        0.86658844009114
N            1.16973669869439        1.71672886916832        0.73050008255475
C            0.00659545582981        1.54671005840546        0.21531261288253
N           -0.73931776298030        2.57030486185704       -0.19403671158579
C           -1.99996808245649        2.11633309691361       -0.26187183570617
N           -3.00399724753442        2.91147252857579       -0.61892543756518
C           -2.11680324548342        0.72674287244226        0.07092491475934
C           -3.35353453907406        0.10448152682210        0.05212285983721
N           -4.43032846229531       -0.31323781227845        0.03347788730202
C           -0.79856812344711        0.26603286304848        0.26282221585007
C           -0.23418344394567       -0.98942059442793        0.20046103048996
C           -0.95643157153994       -2.24164779530637        0.24661310868232
N           -2.18135973337832       -2.47360328406108        0.72973463424584
N           -0.20468257991788       -3.27489531883459       -0.16105091707273
C            0.97133096167351       -2.77553820750440       -0.51269125728506
C            1.10767728146180       -1.39350198277246       -0.26732133173178
C            2.35404553734111       -0.81413412226561       -0.48590414235308
H            2.94825279620695        1.74625342235456        1.64799825311753
H           -2.80215349832813        3.86479599478009       -0.86678329980809
H           -3.95116623569884        2.57269113567570       -0.62119355011862
H           -2.84032173890242       -1.73191136888370        0.89896816847540
H           -2.53273731120571       -3.41025823847904        0.61719338848597
H            1.73969577058696       -3.42455036465389       -0.89330694566917
H            3.03331516522658       -1.47662818490930       -1.01613750017560
