34
 energy: -62.578586166107 gnorm: 0.000835181972 xtb: 6.6.1 (8d0f1dd)
N            4.63656426229451       -0.58954560594731        1.93703275149331
C            3.66214463371587       -0.51591226636924        1.32992699796095
C            2.47287437377023       -0.42436952146890        0.58083885590765
C            1.65992583734301       -1.51771256773280        0.60644002312371
C            0.43094692381051       -1.78736053981201       -0.03420115449677
C            0.00529389556817       -3.11112087849302       -0.30308007123987
N            0.71415261323478       -4.24197978815675       -0.17421844418584
N           -1.25364798856017       -3.17070155679191       -0.81133762490007
C           -1.71865919465293       -1.93912747714836       -0.79334755562952
N           -2.87518353208383       -1.63155432549485       -1.38033180171605
C           -0.72317796799473       -0.97181467013362       -0.27769845199290
C           -0.97859527847963        0.34537126675436        0.02625923951413
C           -2.26371720533325        0.89626962171105        0.38821874194687
C           -3.43770092344253        0.22396663602313        0.70280111050137
N           -4.44786226887275       -0.26659426994660        0.96919265150872
C           -2.10700185566459        2.26426265794072        0.61857849376732
N           -3.06230015315728        3.12935870924670        1.01132838753202
C           -0.75027045064930        2.60840844395124        0.33227042999676
C           -0.04673010735357        1.47596556848845        0.02155897222508
C            1.30340250959259        1.55711831080803       -0.50162389743951
C            1.51294968849232        2.71315839744672       -1.27957941304356
N            1.69458977993698        3.65533080565976       -1.91500741882484
C            2.40061591423993        0.76534779867203       -0.27292235423054
N            3.58925865503766        1.08422394475862       -0.85152614592849
H            2.05355752622207       -2.35182978831828        1.18447723003821
H            0.23493225309918       -5.11229464808965       -0.32432131250721
H            1.60833084993323       -4.24136142528126        0.28300599476149
H           -3.30786957056962       -0.73563643362884       -1.23350919155480
H           -3.45252381699019       -2.40080558409441       -1.67720775729294
H           -2.80657635181333        4.06282685346696        1.27998795712619
H           -3.96156722068396        2.77684166137483        1.29265232516468
H           -0.35841266382769        3.60847315914544        0.36349464847832
H            3.67334991218932        1.95500567066373       -1.35089708974706
H            4.43140614405279        0.63481047389559       -0.53351121991760
