29
 energy: -51.166940655327 gnorm: 0.000718402687 xtb: 6.6.1 (8d0f1dd)
N           -4.55642631790155        1.06761706704424        0.78339344949629
C           -3.61017377434561        0.45720784416527        0.54998148448364
C           -2.45319711660342       -0.27251084912899        0.27527009631534
C           -2.33353156872663       -1.66539622440383        0.21242452805756
C           -1.02454392798091       -2.02072996267192       -0.13049904742836
C           -0.61135546379925       -3.34904470582507       -0.25285600347898
N           -0.32806640998701       -4.46009688997967       -0.34626917726690
C           -0.23415379390727       -0.84031264298729       -0.21038107893054
C            1.13583309413178       -0.76181299110446       -0.32285027869688
C            1.94909429916532       -1.85822176555510       -0.75537805965048
C            3.25932204496581       -1.49812878037648       -0.67309045233843
C            3.33581283244808       -0.19667889650554       -0.10423270341114
C            2.06760184910809        0.30167562541220        0.09295335339100
C            1.86800097843911        1.57455302636936        0.74871003958980
N            2.82260048365174        1.88659922439732        1.66164809405340
C            0.97454249641358        2.56370344918068        0.40729357919249
C           -0.14787753923788        2.46310931067569       -0.45879901699584
N           -0.43564549036274        3.50417549137698       -1.27146594315385
N           -1.04944384485027        1.52928670010380       -0.39212314049357
C           -1.19357173368367        0.29123804308863       -0.04524647026506
H           -3.13062421891384       -2.36370272638395        0.39853656263197
H            1.56032173424168       -2.78007288958846       -1.13977382941186
H            4.10608052729617       -2.08326255995586       -0.98057006010976
H            4.25774912572881        0.32666508941927        0.07862923078996
H            2.81401083755875        2.77692984696185        2.12551574943312
H            3.50502915970083        1.20243256706820        1.93055607111561
H            1.16166684514107        3.54982128815837        0.81482281491181
H           -1.32162072562053        3.51741672561071       -1.74704705544629
H            0.12143138623007        4.33853695913592       -1.24950722578517
