30
 energy: -50.085989296208 gnorm: 0.000934217698 xtb: 6.6.1 (8d0f1dd)
N            5.41361495626123       -0.14840356818562        0.50661201756270
C            4.29196563199285       -0.31854286732615        0.31285949561434
C            2.92251955852531       -0.48535103479523        0.10867095194873
C            2.25800459998848       -1.65517500547272       -0.23342870644732
C            0.86834512014648       -1.41876671467676       -0.23969841497987
C            0.02603417495399       -2.50296960912407       -0.41734253544738
C           -1.31974249318069       -2.77619401679541       -0.24086660080577
C           -2.43841666402917       -2.02973958017049        0.13266896039593
N           -3.55830298563805       -2.76764606352761        0.38824660329185
C           -2.65140254810445       -0.63760405569695        0.23619494425227
C           -1.91795060201066        0.50247461372179        0.04597151464030
N           -2.64608734694211        1.64828218761525        0.00790617912851
C           -1.79467399092123        2.64230875042789       -0.22882466649440
N           -2.21146437606260        3.91536003618643       -0.35458977703174
C           -0.44616728573825        2.19770778783263       -0.28466222501273
C           -0.46551161048746        0.82942650266849       -0.10425619538235
C            0.68055991979798        0.02025598326103        0.01620263429555
C            1.95650216604512        0.55110335931089        0.25826941182594
N            2.29858946752909        1.84378563523822        0.59105146758134
H            2.72576041543117       -2.60764590107088       -0.40364809117858
H            0.58739419042621       -3.39625504289168       -0.68011864200381
H           -1.55553661282259       -3.82826229390177       -0.37497255749606
H           -4.43672951633830       -2.31350753863032        0.55840823592225
H           -3.55436604435961       -3.76190129229184        0.24818192741448
H           -3.69093549388673       -0.38325487853920        0.42463935730593
H           -1.58027505016613        4.61496849058514       -0.70196132054992
H           -3.20073940688841        4.08428600587023       -0.40921185359728
H            0.39139392321169        2.81952258938058       -0.52741953564982
H            3.23137033566246        1.93344449668566        0.97003273232876
H            1.59688269580426        2.35247476800954        1.10949312736658
