30
 energy: -55.676496607269 gnorm: 0.000537169197 xtb: 6.6.1 (8d0f1dd)
N           -5.79038458558594       -1.55163044384364       -0.46919094475969
C           -4.69817819388203       -1.22770664285579       -0.32397040186735
C           -3.39275376238283       -0.76576318655576       -0.11979579068084
C           -2.22247988804954       -1.46949443562781       -0.18920159404185
C           -1.12877659352613       -0.57515132197654        0.06679916609981
C            0.14767479091508       -1.07233792933827        0.10956016960787
N            0.29549055045396       -2.43904534123348        0.11257404767227
C            1.56976912497453       -2.69873352269385        0.13202899341659
C            2.37088725561103       -1.51389908655501        0.07881820000749
C            3.76558216479801       -1.51881520939960        0.14943603445192
N            4.90637569962631       -1.59462459996193        0.26380966346817
C            1.48342758081594       -0.43772445573625        0.07760997021940
C            1.90556180723872        0.89653341096996       -0.15305012543865
C            3.15321321139725        0.97625263662310       -0.81608924461288
N            4.11755949425575        1.10675068140288       -1.42896337020176
C            1.36456151584857        2.14224425202330        0.20672090106059
N            2.15800312742779        3.22015366037939       -0.00653768340293
C            0.12581259942669        2.47559123213911        0.83364046441494
C           -1.11704608936043        1.92542838684792        0.84381700740728
C           -1.70130060318645        0.74146510602757        0.34711982475808
C           -3.08622380134453        0.60359919425271        0.24403490045109
N           -4.04674856303988        1.54711513386537        0.37072912884651
H           -2.09539130270671       -2.50933227970931       -0.41606667634012
H            1.93917739090343       -3.70695959667718        0.19190797015752
H            1.83381674527747        4.14493222756219        0.21301815055489
H            3.06552923364669        3.11192649296199       -0.42933225799609
H            0.17314229588362        3.45784705197871        1.29333323353681
H           -1.85281447661652        2.57125660291773        1.31697739622492
H           -3.82494473366583        2.44790225114904        0.75712762999400
H           -5.00903420865387        1.25317099896525        0.39001234919042
