30
 energy: -54.116069937567 gnorm: 0.000990794633 xtb: 6.6.1 (8d0f1dd)
N            4.37133352933766       -2.45032791068875        0.18501714958336
C            3.41504265888596       -1.80933070256183        0.13565085781259
C            2.27506834444115       -1.01627168840662        0.08048076990395
C            2.27449127533830        0.41457403537934       -0.05039841389329
N            3.42075846870541        1.13744300655834       -0.21233176634820
C            0.96457892963324        0.88430182722224       -0.02293825721289
C            0.59321471668427        2.23593809913063       -0.36408446680113
N            1.42230393137306        2.89022900184053       -1.23378942161256
N           -0.33793362576679        2.95777115062736        0.16287469687431
C           -1.34515954998351        2.67587580873910        0.97588834223338
N           -2.29024400026066        1.81667108023269        0.86467221941321
C           -2.35372003239902        0.63516823646398        0.25294729300485
C           -3.51317774665149       -0.01086043851661       -0.09666010809653
C           -3.16404050960210       -1.37719198286884       -0.30259720406296
N           -4.02869836462683       -2.36609720318621       -0.60022865089351
N           -1.87078034772765       -1.61372488150885       -0.12118030629352
C           -1.27942191923020       -0.40043510948646        0.12600604939866
C            0.08530235576383       -0.26579363055083        0.10895252343108
C            0.95280221468244       -1.44328283189406        0.11070005985223
N            0.48087855376617       -2.68762591455381        0.18895911085798
H            3.37604278601949        2.12242846333833       -0.00591250495575
H            4.27669349000698        0.67187325871243        0.04775743878051
H            1.99064213638513        2.34211355349370       -1.85644622846627
H            1.09280260135912        3.78114633814691       -1.56893368508555
H           -1.50085102893752        3.42474472715792        1.75307614918023
H           -4.50134661012532        0.40025688804280       -0.14056351476006
H           -3.66860172439109       -3.28301889196551       -0.79843596846439
H           -4.96128399732730       -2.13760724309554       -0.89265256976354
H            1.10625489484880       -3.47345388093127        0.21877525480142
H           -0.53749944940146       -2.75704530617141        0.11776712628166
