29
 energy: -51.953808358654 gnorm: 0.000931470958 xtb: 6.6.1 (8d0f1dd)
N           -1.27944831784476        4.16354967854693        1.20899410447290
C           -1.07783565833452        3.11380355345906        0.79390979509381
C           -0.85256167530276        1.79485990215653        0.31210969909289
C           -2.01808743251357        1.06439706572361        0.19850363268314
C           -2.31747210823640       -0.20065017465904       -0.33300230601982
C           -3.67846993237691       -0.30705576908394       -0.71244374254182
N           -4.77886184111096       -0.40027135556073       -1.02781432374295
C           -1.57506417309865       -1.38815443512594       -0.47642970722691
N           -2.16366796021145       -2.39782660478646       -1.15214763541325
C           -0.34224388268246       -1.72615499618687        0.16596329824504
C           -0.09126046618030       -3.01130087611464        0.59830595491428
C            1.25132324931339       -3.10959073988932        1.05377681715652
C            1.87870348986179       -1.92497842920327        0.81515996585676
C            0.92878892257887       -0.98543366713860        0.29368389941254
C            1.28226257094045        0.29237359544324       -0.06491777848579
C            2.63638253611588        0.69176303327450       -0.33636869418058
C            3.73547214662239       -0.14398909075017       -0.55758223633417
N            4.66515194865253       -0.78699192481649       -0.76663643729858
C            2.67032807160523        2.06726300209421       -0.50480058718561
C            1.38466792282086        2.58672399366821       -0.28187821075618
C            0.49534880760836        1.55067450766688       -0.05798199558842
H           -2.90970596213312        1.63236863958058        0.45397104353135
H           -3.09695659026600       -2.29598626891543       -1.51760797496498
H           -1.70487681049105       -3.28803612807957       -1.22201295942554
H           -0.80573575840802       -3.81315031702716        0.65718428659126
H            1.68270904919244       -3.98283986437569        1.50609780951468
H            2.89382546093189       -1.68428168485642        1.06052203003387
H            3.54111193475933        2.64032102439385       -0.76697134927374
H            1.12844933548944        3.62922467796067       -0.31183343806003
