34
 energy: -62.570720682833 gnorm: 0.000904942371 xtb: 6.6.1 (8d0f1dd)
N            2.95730512927195       -3.58101904181904       -1.33590922985313
C            2.41497595188701       -2.66996072804328       -0.88622977656771
C            1.75875533690053       -1.54754455841950       -0.34784398197677
C            2.37997789040574       -0.32023316979946       -0.56371999238112
N            3.49372161782415       -0.29752576710417       -1.32892519296700
C            2.03840216817963        0.94073517581406        0.03004612971056
C            2.98756655425400        1.88461902396655        0.40235851323628
N            2.44685553049500        3.06106614220483        0.78889471189885
C            1.14897957856444        2.95947156090167        0.57743792956141
N            0.29475008030774        3.96968604720594        0.86627856493040
C            0.77699977975146        1.63085898137561        0.10066987679949
C           -0.50417459838252        1.25020343095337       -0.24234054439751
C           -1.52544140191820        2.12385334389692       -0.66565543658566
C           -2.69658468799758        1.40633153144000       -0.82997295496857
N           -3.88686701006329        1.83717316945579       -1.27774988490157
C           -2.45181746744066        0.04185073487123       -0.40830125049532
C           -3.44448117134081       -0.93626431013041       -0.45749902223113
N           -4.31383182906300       -1.67992340241406       -0.58021989402016
C           -1.11259366001473       -0.09035153820544       -0.07877655720292
C           -0.60009703190484       -1.24536295553198        0.57879200489197
C           -1.56526760006306       -1.90411334220396        1.37355178067810
N           -2.30703521882027       -2.42225161474892        2.08359403366323
C            0.63647620125128       -1.88956061364523        0.49216339052140
N            0.78314292487191       -3.05172913691148        1.17361690076418
H            3.99764955925665        0.56327558799068       -1.44224645502816
H            3.88219917339952       -1.15070623272201       -1.69601775534964
H            4.05280590987585        1.75016443902786        0.47220271567071
H            0.68030570509625        4.70356368720660        1.43939804484230
H           -0.67527400593013        3.73630355888331        1.00614152309363
H           -1.38011429093214        3.14719359477188       -0.95506058625593
H           -3.99370144771222        2.77247256989760       -1.62854764181556
H           -4.63704142564669        1.17836286823911       -1.40140532109640
H            1.59272008110649       -3.62766663240377        1.01302836927245
H           -0.01150318606984       -3.46060485650090        1.63923100955821
