32
 energy: -58.325323134923 gnorm: 0.000682180205 xtb: 6.6.1 (8d0f1dd)
N            3.66661497664944       -1.71883001518531       -1.73201541322418
C            2.84815381263938       -1.23293333834120       -1.08735954577719
C            1.83469144565716       -0.58351716958417       -0.34957207714653
C            1.05714226470858       -1.47611608320275        0.46379204099494
N            1.59120592260098       -2.59096444576006        0.89887741130153
C            0.59757508445681       -3.34247172122592        1.45333239067353
C           -0.63607885274701       -2.78967224237863        1.24711844882291
C           -0.40726090144381       -1.51973229205115        0.64021274080607
C           -1.33837207235282       -0.66483520484983        0.09904707712304
C           -2.65526701123839       -1.08653685672013       -0.43029886757237
N           -3.05747547721619       -2.35449997054983       -0.53406998757016
N           -3.35328078202361       -0.07012526077518       -0.88011273997837
C           -2.59523650786928        1.04368907394348       -0.64508323473706
N           -3.10702186096820        2.25926303204060       -0.93652516405058
C           -1.33393276923364        0.74188810247184       -0.10029562633057
C           -0.42433387115782        1.72338583885451        0.44181796597530
N           -1.02879546350351        2.81404928977878        1.00562360980704
C            0.94732141271405        1.70123151372028        0.34081826270622
C            1.65271185074922        2.78090937253992        0.89833029911468
N            2.22215497252755        3.67106930902377        1.35673890571090
C            1.79657718624922        0.79212679313857       -0.43164300142214
N            2.68526471963498        1.43070988778234       -1.23707282744905
H            0.84575233901894       -4.25389413265108        1.96557190694010
H           -1.57278989780613       -3.14795166852202        1.63206423077253
H           -3.88859244937456       -2.55223292577868       -1.06417588133251
H           -2.41287317114085       -3.09368252047939       -0.30613503431919
H           -2.47930512854742        3.04048957208120       -1.02602950276238
H           -3.95149334933344        2.26299944607222       -1.48306695353109
H           -1.97713133084813        2.71233063576381        1.32662452559682
H           -0.44580275049924        3.46393982847764        1.51054426443655
H            3.42758287351338        0.89567553795261       -1.66049243794755
H            2.81787157118363        2.42334621371377       -1.13582830923061
