25
 energy: -47.493905888552 gnorm: 0.000833512628 xtb: 6.6.1 (8d0f1dd)
N           -4.03399824101578       -1.05502750683883       -0.61538211934319
C           -2.91219229776084       -1.18357666197381       -0.37779679223043
C           -1.57291840895850       -1.42535364442513       -0.10549159496623
C           -1.13433810737805       -2.68915878705930        0.33140585078917
N            0.17084820110986       -2.77303084391675        0.54384099458868
C            0.68377230308699       -1.57712474064475        0.23444321015261
N            1.94176716881606       -1.43247952448247        0.01596588621962
C            2.76019990537758       -0.43051267730684       -0.20105727837130
N            3.64823223386841       -0.56407706873146       -1.20126544889832
N            2.94114228959366        0.59909583195880        0.62999136298604
C            2.02968480906076        1.41678588678615        1.04889573829550
C            0.71833702669050        1.62539130095134        0.59485803679421
C            0.11934595368214        2.88002428829582        0.72739824299245
N           -1.07406293132298        2.97427250832645        0.13452384557665
C           -1.36710375358951        1.76347589736042       -0.33588409218774
N           -2.46427294904504        1.58838707869380       -1.07598226011421
C           -0.30874698371897        0.79050950510246       -0.05498967839404
C           -0.42922454913543       -0.57701958173304       -0.07471795085118
H           -1.76877326430101       -3.54281926391670        0.49687298738689
H            3.67934744805476       -1.42517339153593       -1.71903857215338
H            4.41537255083168        0.08242141639059       -1.26036683752875
H            2.39899724454087        2.15431786931399        1.75692143325698
H            0.55431831656841        3.74273766943902        1.19929119361005
H           -3.10466298145521        2.36559015335068       -1.10319735201760
H           -2.82109060740089        0.67217317139538       -1.29703979979299
