27
 energy: -46.941279243875 gnorm: 0.000851655417 xtb: 6.6.1 (8d0f1dd)
N           -3.98462658017323       -0.93197513809693       -0.53535828676125
C           -2.97843777145284       -0.40347529180731       -0.34120127852301
C           -1.86075500470193        0.38045723006603       -0.08627430543236
C           -2.01324895584653        1.77749117940483        0.25212266718099
N           -3.18612479073020        2.41720489784253        0.31723136687545
N           -0.85516069410305        2.36253964798412        0.48190563863417
C            0.11729403235357        1.42505521499288        0.29454100601111
C            1.39692458750918        1.88954607019074        0.22886924323838
C            2.62003625620155        1.21467202229669       -0.07113325772602
N            3.54439153835485        1.93991470240124       -0.74489594125708
N            3.03332108143472        0.06450725556454        0.37006781090766
C            2.51893782224901       -1.08119591202563        0.71591878340086
C            1.35331835260640       -1.70728000429274        0.30406585079444
C            1.25798216232247       -3.11444801316370        0.25997209700759
C            0.03618367290497       -3.46679778966710       -0.28463721038114
C           -0.69884991152060       -2.30486865206062       -0.51673069951396
C            0.06431842942586       -1.18320406283306       -0.16387683439679
C           -0.49627720432866        0.09722869953176       -0.01573676527465
H           -3.20540319900407        3.37793067477660        0.60811134328996
H           -4.04186219828778        1.91666350147145        0.15299065369696
H            1.47397779369945        2.96600631588986        0.32283452809091
H            4.42814263766786        1.51826864063119       -0.96956348524764
H            3.32693657872463        2.85725713868537       -1.08862075151971
H            3.22049982800598       -1.69879325025948        1.27521788750019
H            2.04644085635442       -3.78607356083395        0.54751118109026
H           -0.30545773129595       -4.46750809775081       -0.47744044475815
H           -1.70270848747005       -2.27660845716037       -0.89523348483243
