25
 energy: -48.261946869828 gnorm: 0.000451846377 xtb: 6.6.1 (8d0f1dd)
N            3.15175831237467       -3.04952601155456        0.61521124685288
C            2.35091966918195       -2.26198674022748        0.39142579056299
C            1.30944108994104       -1.32309833313258        0.14080337246094
C            0.03334547561780       -1.89037355299893        0.19587462930395
C           -1.25398049757799       -1.48019367546941       -0.11565830965332
C           -2.15599778464596       -2.57839175473222       -0.13973053234625
N           -2.88947173258033       -3.46080481129537       -0.16141981216153
C           -1.89053492118315       -0.22463842873133       -0.39084315862547
N           -3.10927515655405       -0.30544711604220       -0.94773291208588
C           -1.46709858718842        1.07059959293729       -0.01736231464510
C           -2.37105065207986        2.10110737472359        0.25934524087981
N           -1.76300452557233        3.26312741232636        0.55892214226278
C           -0.47197392710681        3.07360529357773        0.41144470260476
C           -0.16070395935199        1.71929303630098        0.08917908829492
C            1.13529118856130        1.31124238709519       -0.14024318034222
N            2.12946377575613        2.20511606031094       -0.27652405051058
C            3.23475690516633        1.48564134683948       -0.40235962994209
N            3.09258479579116        0.16043106354676       -0.29512342491507
C            1.78393665995966       -0.04135605367243       -0.14309987371095
H            0.07403089286225       -2.94807428371923        0.45127940213718
H           -3.64243261760822        0.53150651467246       -1.11203209887659
H           -3.54097562665272       -1.19949640145064       -1.12522336281163
H           -3.44198448575313        2.03736488786111        0.34065983360348
H            0.24766222517608        3.85312737985888        0.56755284406139
H            4.19399209836816        1.93748497107492       -0.57597699859999
