27
 energy: -46.923539151160 gnorm: 0.000510242415 xtb: 6.6.1 (8d0f1dd)
N           -5.04877186784245        1.14349631138998       -0.10748348678969
C           -3.99686721390665        0.68149397552878       -0.16998707514886
C           -2.70268599783635        0.16295495645502       -0.21357994132328
C           -2.31080447977628       -1.10349713592088       -0.64863783132621
C           -0.93711475237601       -1.28341279945489       -0.42329662269829
C           -0.39073855380553       -2.54509159229906       -0.67305985053092
C            0.71966587019985       -3.21075767838165       -0.19201519765929
C            1.76801095701026       -2.69195763870461        0.57351635754785
N            2.33508238627331       -1.53906114066951        0.46784850817103
C            2.15462992010132       -0.33792096265308        0.04745838783820
N            3.19129787465919        0.43394674664507       -0.29011254282152
C            2.72067913587438        1.69255032721770       -0.32801204564014
N            3.53120989169077        2.70958905162256       -0.63364839845651
C            1.33496952083752        1.78308371659978       -0.03233782668735
C            0.88367529106941        0.48651448882512        0.11550133644425
C           -0.42828309584811        0.00418527685455        0.09385449774095
C           -1.54815467749997        0.85336966618046        0.23183811375964
N           -1.55587384554209        2.14302090529883        0.69155707714151
H           -2.97654533408563       -1.85222423567683       -1.03775667650208
H           -1.09064363429902       -3.19181561887083       -1.19482786681283
H            0.72163005944379       -4.28598593547451       -0.31841331444280
H            2.27456878924393       -3.36799817569578        1.25985246812515
H            4.48470808516720        2.50689784002081       -0.87752869895234
H            3.19676956560158        3.65576131175373       -0.64767629707158
H            0.76375745840366        2.68784758450036       -0.08161906675337
H           -2.46924864285439        2.51745316535234        0.90178278825894
H           -0.83189632940296        2.39058416795646        1.34722168668944
