33
 energy: -63.655335576878 gnorm: 0.000732628043 xtb: 6.6.1 (8d0f1dd)
N           -0.39986441609861       -5.42150148030811        0.07189717746882
C           -0.35058684550733       -4.27998530750472       -0.05573131894947
C           -0.27399794657053       -2.88257956974120       -0.19020569666730
C           -1.11786204699402       -2.29176286195511       -1.15212184897533
N           -1.68130511124274       -1.14773210256752       -1.04125099759780
C           -1.63531758525237       -0.04007138053460       -0.36852915327327
C           -2.76771526167997        0.69915324003582        0.00417368634399
C           -4.09259018087851        0.26634207427502        0.03511330375272
N           -5.19879696149154       -0.04298300022816        0.08565881298741
C           -2.34708013810981        2.01796030835693        0.32066533710690
N           -3.14443493258881        3.00925303379746        0.71870491735028
C           -0.93779199591139        2.10955427261157        0.14967344899022
C           -0.27446529098948        3.28917366650293        0.46766146649897
N            0.18567990171068        4.30959837245592        0.74562517772756
C           -0.43543135442163        0.82801314098567       -0.17831082856629
C            0.86442735158852        0.35582459350870       -0.18538805309349
C            2.04114587963727        1.17852975715191       -0.33756594283493
N            2.10409475537656        2.40375274945648       -0.89853365435052
C            3.16201750732427        0.40696796011419       -0.01081697941514
C            4.48856323683393        0.83305198178368       -0.09063802803076
N            5.57439724361717        1.20608587902877       -0.15050189804064
C            2.71646772685420       -0.86886988752733        0.39206507086937
C            1.34102942007387       -0.97116330421028        0.23690031214208
C            0.70015167484269       -2.20836437505875        0.57981171218565
N            1.26249053239052       -2.90353006975911        1.58789890700129
H           -1.45529843930048       -2.89526537322928       -1.98933564927793
H           -4.12803380451279        2.84332622498903        0.85282735175440
H           -2.76602742799578        3.92374065114663        0.90376332220234
H            1.28517575425543        2.98255515508513       -0.96977425966666
H            2.99299142339014        2.87688249445065       -0.87381575047312
H            3.38580548088645       -1.65968480540641        0.68091523406735
H            0.99989536495508       -3.86453129354404        1.74202751283524
H            2.06642262890727       -2.53884540536147        2.06895121342641
