28
 energy: -51.451936928341 gnorm: 0.000499390320 xtb: 6.6.1 (8d0f1dd)
N           -4.96923206494782        1.44426756730113        0.15956872658033
C           -3.98267222807974        0.85472770285255        0.18708231281725
C           -2.76946090767263        0.16268838652952        0.19977497935756
C           -2.52410610325224       -1.08653584963766        0.76332517291303
C           -1.20341408978584       -1.45927270677113        0.48196863767302
C           -0.72101076423314       -2.73416123589417        0.73327510965296
N            0.11232225377552       -3.40821292301369       -0.00434335501333
C            1.18034936564670       -3.24444387992667       -0.69301425191507
C            2.16765942627202       -2.25216485747715       -0.55384270522664
C            2.03507283537140       -0.93001186731358       -0.20407479459224
N            3.17407126199791       -0.20901646557903       -0.11727568327445
C            2.83794813357280        1.06587399508094        0.00246294545521
N            3.73703826267461        2.04335228420624        0.14000256595816
C            1.41147748052253        1.25386453491648       -0.04305654246839
C            0.87360740312350        2.51592228106779        0.16168065771943
N            0.53841779940166        3.60569621627986        0.33844711139025
C            0.83558594862086       -0.02133853062054       -0.13819879772747
C           -0.53721675306590       -0.30435853071334       -0.15876277806355
C           -1.56006560855340        0.65723950873375       -0.36755441115573
N           -1.51942315291434        1.78005040084857       -1.11939949246341
H           -3.25231062658560       -1.70378189009225        1.25562611990179
H           -1.24950291531427       -3.33957987863363        1.46543850795663
H            1.39530058890220       -4.05956820319541       -1.38060948115035
H            3.17764560793365       -2.53636118777908       -0.81898553878994
H            3.43776321067140        2.99229379058480        0.28460886480630
H            4.70847249952987        1.80135549513862        0.22623709426791
H           -2.29020974946650        2.42325224264985       -1.03789062123276
H           -0.63751600464782        2.17351260435368       -1.39751978077583
