28
 energy: -46.645268645054 gnorm: 0.000810845455 xtb: 6.6.1 (8d0f1dd)
N           -2.78975818272975       -2.44275091971981       -0.55142191469176
C           -2.23442567426410       -1.46393456995557       -0.29431219821995
C           -1.67380533867901       -0.23111207733054        0.00084569282099
C           -2.49877771129837        0.95140660882048        0.09669102948734
N           -3.83941930688631        0.95308652986093        0.04531545384851
N           -1.77924497122955        2.03787039725617        0.27080988461363
C           -0.46298022724974        1.67498677189014        0.23276710605889
C            0.42557903587222        2.70972637125563        0.37906624864480
C            1.80614915379252        2.88420680680629        0.18879606246062
C            2.80490750817032        2.09405664360383       -0.30876664977313
C            2.89918175574558        0.72769381128527       -0.64869045935168
C            2.13773716312439       -0.38152909544610       -0.41432003653939
C            2.74923068225696       -1.66463097403898       -0.57214706351918
C            1.95400428846947       -2.61914953777261       -0.01327191825736
C            0.74051176628890       -2.01353850550827        0.42412031940142
N           -0.16794155784951       -2.69940775104813        1.17179305027960
C            0.78051918721196       -0.64174611897867        0.12986058657457
C           -0.34606342873283        0.19914814835359        0.09843771907623
H           -4.33035124905163        0.11739488618211       -0.22123036659079
H           -4.31534928097559        1.83760132363620        0.02240436407756
H           -0.09773317427865        3.62885880124401        0.62104760610259
H            2.12405637742853        3.89918811449591        0.40481428049470
H            3.74329325054769        2.61850157408955       -0.45656633134550
H            3.86330946604053        0.48217668776621       -1.08593775213552
H            3.73007797385802       -1.81432756186759       -0.98451103696307
H            2.17742140617197       -3.66560860945267        0.09157029890222
H           -0.17067510233522       -3.70072145363937        1.07724407884634
H           -1.06771535451962       -2.28672708988819        1.34700421209708
