29
 energy: -55.972216473002 gnorm: 0.000777920962 xtb: 6.6.1 (8d0f1dd)
N            3.00717096205628       -2.86628164514687       -1.07510644298710
C            2.06596594405106       -2.35156523334888       -0.66859604919168
C            0.85061157761216       -1.76299238027750       -0.24047604843821
C           -0.22496217974313       -2.66108473553951       -0.23604129936941
N           -1.34269942625024       -2.60327072471903        0.41448341016050
C           -2.20931309382697       -1.71549937582509        0.79320650110252
N           -2.99580632089742       -2.00325941300441        1.84184913114600
C           -2.48389358543998       -0.51985496686417        0.04682532240338
C           -3.72471362445714       -0.02545997539471       -0.29447277921540
N           -3.63819392958890        1.17842674534883       -0.91982187281283
C           -2.37836355708126        1.52464512277859       -0.90864789456555
C           -1.53470113941775        0.50609679701938       -0.34478279806362
C           -0.17456395735437        0.64755035747393       -0.10987500148314
C            0.47316573715124        1.90150868575469       -0.05023933004010
C           -0.07770389755858        3.18437338579362       -0.09485930421444
N           -0.41782372933982        4.28300060492658       -0.09963089411529
C            1.84798387531829        1.70764853711983        0.20774090144168
N            2.76215521182410        2.65693243941694        0.39779508664803
C            2.09507944633609        0.29946976878000        0.24692454479616
C            3.36606065197449       -0.21165654815220        0.52328245863497
N            4.43656297937810       -0.51488988428432        0.81185310490984
C            0.89364405519521       -0.38327697692805        0.04939172210194
H           -0.04361477648973       -3.62360155147024       -0.70874695055507
H           -3.78239170170505       -1.41388352248107        2.05248986841765
H           -2.88812129568870       -2.88062206405264        2.32259724029142
H           -4.68092048351335       -0.49975477484887       -0.16656736527224
H           -2.05080624768690        2.44155591998703       -1.35946380758878
H            2.50018485890181        3.62827206345723        0.35119416963100
H            3.71783953624295        2.40697537578158        0.59422498642741
