31
 energy: -58.641477204261 gnorm: 0.000384721201 xtb: 6.6.1 (8d0f1dd)
N            3.17766698405625       -2.63288838677020       -0.51562312764633
C            2.20357449826099       -2.06333842920671       -0.28689589417341
C            0.95839447426620       -1.45081104907708       -0.05314202316173
C           -0.15181467000329       -2.34026054312839       -0.19092192841042
N            0.04074780442952       -3.45477729433048       -0.93292562845788
N           -1.28986674204356       -2.29735612233039        0.45539540645583
C           -2.19352241120807       -1.43124074536515        0.79459704780258
N           -3.07373696213660       -1.82909571098745        1.73585522084723
C           -2.41778913683417       -0.15551451441465        0.19017993212346
C           -3.65719979052014        0.44064483177949        0.01164219698517
N           -3.58868417560763        1.70456897355722       -0.45549236612647
C           -2.29959338490806        1.99728976893451       -0.53143813864311
N           -1.81820571833292        3.17023841045330       -0.94068804774898
C           -1.45013231084148        0.85754843111320       -0.16583417282347
C           -0.08552114533540        0.96341300258492       -0.05118172816490
N            0.49168369588227        2.19899425301458       -0.12181130491553
C            1.78592946794706        2.05416673525273        0.12537226889298
N            2.63829965036403        3.08447436458870        0.18494079152201
C            2.15031250258166        0.67857339239177        0.30248494591823
C            3.45275361958521        0.29208440049660        0.59931514485729
N            4.55289543222667        0.10760114617011        0.88446650941656
C            0.97389808836105       -0.06315195769433        0.15649994325052
H           -0.66620471059795       -4.16922819641949       -0.91993610848171
H            0.96061170319274       -3.67810071763880       -1.27496362000683
H           -3.84046297169223       -1.23510867467255        1.99221445668594
H           -2.98782982494065       -2.74451155092320        2.14108785897888
H           -4.62312398936451       -0.00993424830262        0.16269558612965
H           -2.45716817338613        3.92540159051468       -1.11642776636908
H           -0.81792387720926        3.29326326052344       -0.79147865031341
H            3.60069676172932        2.91734000594903        0.42148531597168
H            2.29868236177994        4.02384512933159        0.08450298650411
