24
 energy: -38.947892176773 gnorm: 0.000721155655 xtb: 6.6.1 (8d0f1dd)
N            3.87185988259899        0.15493403393333       -0.30389583126129
C            2.64548000638835       -0.39198849264989       -0.05235700394184
C            2.43862530323277       -1.76310632093885        0.27556437244145
C            1.09766122897311       -1.99353143578174        0.37610159173104
C            0.37929617778734       -0.77333024569267        0.16402620532026
C           -0.98725996120795       -0.74727551442848       -0.02068403538111
C           -1.78671371120235       -1.91047463863631       -0.17141822436098
C           -3.08341768110676       -1.49145667290960       -0.32697741965302
N           -3.21721275694848       -0.15041065572983       -0.20475273424255
C           -2.00661782392393        0.36078255676358       -0.03440997807008
C           -1.91494636035642        1.69898341814663        0.35834339337778
C           -0.80750993764144        2.50540413760839        0.52853539815505
N            0.36580260470050        2.45197399465290       -0.04732403549683
C            1.22772218978196        1.59518369875540       -0.45874017318715
C            1.40661006308312        0.25218724979596       -0.08183144805052
H            3.95342159049285        1.15715531309859       -0.29571315150851
H            4.67480615067705       -0.35256820505463        0.02780029799056
H            3.22517647241247       -2.48790798922463        0.38583430142317
H            0.64136254158938       -2.93519643077011        0.61151224131537
H           -1.43574771868898       -2.92072442513535       -0.23747019733015
H           -3.95151520344577       -2.09575462768116       -0.52561964839929
H           -2.87403481114335        2.13253040842817        0.61227980446338
H           -0.95073003064733        3.42777271515192        1.08731974019013
H            2.00078167059475        2.03027957499870       -1.09299252742510
