28
 energy: -51.440295787823 gnorm: 0.000778310507 xtb: 6.6.1 (8d0f1dd)
N           -4.50520070019915        1.34206784570195       -0.67285219923352
C           -3.52156272029241        0.81540012134700       -0.40516997125318
C           -2.32624634991391        0.11750023600167       -0.11892615266646
C           -2.38611429049102       -1.27308597864367       -0.29769598725225
N           -1.64461531490910       -2.18957913533587        0.22586471579101
C           -0.42470901188812       -2.35722043725733        0.66075268104900
N           -0.24529935916613       -3.28146905002068        1.62371328565690
C            0.72195408223252       -1.80420968748863        0.01965514702889
C            1.90206096736214       -2.47621120013849       -0.23749366179414
C            2.80584759258039       -1.62428469817226       -0.89887033218791
C            2.24783744625988       -0.36609090299417       -0.98624970851716
N            2.73536739784224        0.66811376769228       -1.71755255257009
C            0.92874790779500       -0.40341420868332       -0.36157573569171
C            0.22764976952457        0.69456096747166        0.08296779406381
C            0.77154325586740        1.99333761817197        0.36240078309416
C            2.11009498154869        2.36273096624848        0.48353289188578
N            3.20631790795713        2.69761160892629        0.59047389501817
C           -0.29353517515278        2.79038030561931        0.77139632452454
N           -1.46774605770223        2.16464397571544        0.66332835319303
C           -1.23975089669047        0.90946820615551        0.29446478179343
H           -3.25630496705256       -1.65631034638484       -0.82540045842502
H           -1.03800545180485       -3.78041161126293        1.98974827246707
H            0.68245421356248       -3.55186865539080        1.89476178476271
H            2.08663333983185       -3.51456977076749       -0.02599219389423
H            3.77195987522685       -1.90810517228378       -1.26990729436788
H            3.71466270372284        0.64234995967089       -1.94813234658708
H            2.34495234442230        1.58685881903623       -1.59312537150228
H           -0.23898714487381        3.79408439226576        1.15269810981397
