26
 energy: -43.187109814314 gnorm: 0.000198848461 xtb: 6.6.1 (8d0f1dd)
N            4.02830523215655        2.43840518335401       -0.15587407028845
C            2.97484712727173        1.98379572074081       -0.10361074975296
C            1.68195134754711        1.40583442480208       -0.03681814658710
C            0.65353414703217        2.39468273345995        0.07692638944925
C           -0.69971459870301        2.37043806867157        0.10432096044748
C           -1.71629123707667        1.37610734098695        0.02658622657488
C           -3.02968415558851        1.76093594124457        0.00728987403691
C           -3.88410589788245        0.61074964452858       -0.06411076492798
C           -3.11328398936101       -0.49851339904155       -0.07260006309591
C           -1.71394443442127       -0.10913812932103       -0.01817173994373
C           -0.71297784766487       -1.03227721362507        0.00217979949551
C           -1.00054770119348       -2.46929107755739        0.03439172395669
N            0.06309288435113       -3.19743601344919        0.04284343370380
C            1.14202449708936       -2.33396350419642        0.00355295272988
N            2.37397294863803       -2.88213699311736       -0.03959036283691
C            0.74902906537414       -0.99104506175830       -0.01429893890280
C            1.70913142636553        0.03479004230424       -0.07649398208720
H            1.07851263756199        3.39242778970909        0.14179262639096
H           -1.14710075098625        3.35640302213527        0.18821614243018
H           -3.38387846252004        2.77546279985930        0.03722761902599
H           -4.95758050682871        0.64934670189410       -0.10355678044594
H           -3.46829231410696       -1.50798403417805       -0.12782817179373
H           -1.96848904486996       -2.92899378667183        0.07394795641001
H            2.43051237225195       -3.87557409128471        0.10096409479335
H            3.19449773065734       -2.32589564872956        0.12103139363153
H            2.71974442140615       -0.35762807536016       -0.16401120941343
