29
 energy: -46.352029874104 gnorm: 0.000608569739 xtb: 6.6.1 (8d0f1dd)
N            4.30154718567394        0.26677614588502       -0.65600889468482
C            3.24960524715174        0.67498616245976       -0.42138560246204
C            2.01921053881423        1.28013727640176       -0.17210454945545
C            1.89487586423104        2.67470321959844       -0.12820120856479
C            0.56415406501440        3.00566457054805        0.04256255781803
C           -0.22363643634507        1.84205228972841        0.04761419090884
C           -1.59413716006003        1.97363912380052        0.18331400768967
C           -2.72320296672619        1.16184199272920        0.02287762043012
N           -3.91290033777838        1.83806702954431        0.10861506299899
C           -2.86211136517211       -0.20070034692160       -0.28974806420653
C           -2.01347102090722       -1.28317884959810       -0.30475160068276
C           -0.67429142379377       -1.53368669980359       -0.03006372400260
C           -0.21216824921252       -2.85921996160003        0.08760150100128
N           -0.95259101990975       -4.01722089069226        0.06081668708036
C            1.16981632797640       -2.84350771461981        0.37665211049641
C            1.61127767837305       -1.54562612753002        0.37605100626133
C            0.52815803673200       -0.66452128214921        0.11798968722491
C            0.72255875772338        0.69194747735068       -0.04020680510948
H            2.71531523844255        3.36400325775264       -0.22379944094975
H            0.17495163919158        4.00541820482283        0.10737646790095
H           -1.86968766644477        3.00893429196267        0.37462466389430
H           -4.77814712022466        1.32901800621525        0.12775036113432
H           -3.92574651501626        2.78893105088887        0.43131126554338
H           -3.89365620961061       -0.46333558344015       -0.50553191792138
H           -2.55543511891217       -2.19907857670590       -0.52742442986369
H           -1.82415080892068       -4.00125959947344       -0.44473576118526
H           -0.41658860276678       -4.86026374007069       -0.07073592131188
H            1.76662117305080       -3.71792108607552        0.56469761636880
H            2.61779181282665       -1.23906636480667        0.57710301604934
