28
 energy: -51.443468122233 gnorm: 0.000722282491 xtb: 6.6.1 (8d0f1dd)
N            5.56703139231905        0.29225384278090       -0.01356668960848
C            4.42115093995973        0.31053730507630        0.04444655211283
C            3.00382232758308        0.32643076572987        0.10997739310545
C            2.47713430992253        1.52757887545402        0.55494140047007
C            1.19243019808462        2.05322729082807        0.64309367071714
C           -0.09005877035401        1.62115123664101        0.36117691518875
N           -1.01726642838674        2.59944458783420        0.37071761416284
C           -2.19232364623699        2.05488254441347        0.07703130095653
N           -3.30704196049371        2.77458425272743       -0.04663099335728
C           -2.09684480896597        0.62900387994746       -0.07664594317247
C           -3.21208407205811       -0.09083117533617       -0.47592028961259
N           -4.20375737829778       -0.57752287515027       -0.81222116828901
C           -0.74572084049732        0.29380885300840        0.10523704088459
C           -0.20208654141164       -0.98730255286133        0.12669277358209
C           -0.92895469088605       -2.20311254148589        0.25022754551165
N           -2.16325285005821       -2.43788531935052        0.73079987294039
N           -0.15811589024924       -3.29292262697937       -0.01562421866625
C            1.03569932682679       -2.86059671409468       -0.32837082561274
C            1.17504442536721       -1.44750234727788       -0.18703396808528
C            2.42733706074104       -0.91236610371406       -0.26191080570483
H            3.24515442001936        2.24312610161987        0.83496722234978
H            1.17202233102886        3.09961083497971        0.92855711292879
H           -3.25348190835339        3.77420377839904        0.04517791722778
H           -4.17127509244514        2.33541683796706       -0.31480385083752
H           -2.87137947618894       -1.72548517053578        0.75254442447621
H           -2.46856506711113       -3.39526500199745        0.66864431647684
H            1.82258156743249       -3.54656452547201       -0.58492845893133
H            3.17677570810891       -1.63272675524682       -0.58248336891424
