29
 energy: -51.167918458112 gnorm: 0.000898007231 xtb: 6.6.1 (8d0f1dd)
N            5.53415472590241        0.59679358621823       -0.13321331456436
C            4.39741263469076        0.70851067597580       -0.00650082896103
C            3.01767977230324        0.85802195458749        0.13666610450118
C            2.33798691279126        2.07126150294684        0.47338737886131
N            1.04627189727850        1.90639245357810        0.46937031737172
C            0.78997579314541        0.57081929375232        0.19282178707421
C           -0.52875601389969        0.14249443060548        0.09750519735505
C           -1.63206427777787        1.14137963727542       -0.06442376063520
N           -1.40611215786367        2.44168857347699       -0.09625790195116
C           -2.81978679079516        0.44620063329807       -0.20978365278049
C           -4.09333242567917        0.96659455644623       -0.41730406441911
N           -5.15757426695339        1.37150100981331       -0.58775400139584
C           -2.51307750824367       -0.95350029712496       -0.06611340144110
N           -3.43891593688872       -1.91626401736887       -0.10322102099618
C           -1.12264535875608       -1.12823931227426        0.11745342512163
C           -0.59159966150625       -2.40848496963548        0.56029470651883
C            0.58845937752174       -2.99731107920792        0.36569234036792
C            1.73778143871837       -2.60082061149929       -0.42989410227212
C            2.35013902055723       -1.42125554915428       -0.56553608592536
C            2.03586496432879       -0.11577487972460       -0.03146260503040
H            2.78961158169525        3.02117500933054        0.69526378140989
H           -0.43296503697072        2.70494614992737        0.13804382712344
H           -2.16457201101945        3.09569118323620       -0.20054262679631
H           -4.40769783469913       -1.67756591399884       -0.23322352201039
H           -3.17585437604657       -2.88287260971484       -0.02075063474224
H           -1.30788272128326       -2.96006721995438        1.16481074222334
H            0.72056835111887       -3.97629708458870        0.81508268704663
H            2.21339423978629       -3.44593199570566       -0.91686663848243
H            3.26862610754463       -1.41268747081633       -1.14403692257133
