28
 energy: -47.440329625730 gnorm: 0.000680492160 xtb: 6.6.1 (8d0f1dd)
N           -2.89501513181638       -2.61328069396771       -0.68344117978980
C           -1.96176934981406       -2.06587826787170       -0.30184041370486
C           -0.71599770399901       -1.49729148583277        0.08667332452129
C            0.18155007750704       -2.49729632558533        0.46263529094400
C            1.49565846022184       -2.52482737172462        0.89960228159907
C            2.54650109185979       -1.62292694517691        0.83891013541146
C            2.72644316831383       -0.36294993281636        0.28927116617939
C            4.03044332897243        0.12821413116209        0.10891049286975
C            3.97748722483413        1.37865319970799       -0.49122532076249
C            2.64467336456142        1.74425986475002       -0.63634056248895
C            1.81325111354499        0.71393838193283       -0.16857899828527
C            0.43217805456580        0.88734885160412       -0.04461616938594
C           -0.15616088345671        2.15417955665857       -0.12329191945663
C           -1.53970867471095        2.04749650051290       -0.01729094173592
N           -2.44385157647556        3.03583358492616        0.00305990492808
C           -1.86649099485440        0.65451171650379        0.07921651851712
C           -3.19223036565897        0.25632542959249        0.25555652051040
N           -4.31666473388586        0.09311954646648        0.43893154697221
C           -0.68296130099659       -0.09093264199533        0.08449938845197
H           -0.28466043145885       -3.47923672131464        0.46216881559526
H            1.78412346274381       -3.49167955168569        1.29755117152207
H            3.47892497808640       -2.03802403129318        1.21148799135240
H            4.92445952339312       -0.41348492742336        0.35801618471652
H            4.82429579014925        1.96805231705762       -0.79357541154643
H            2.30835412447031        2.66300176630312       -1.07685716721590
H            0.37105992196775        3.08461576466136       -0.19772544895580
H           -2.15521493512097        3.99694528646805       -0.03832165142232
H           -3.41952199924283        2.81636957278005        0.11556501595933
