29
 energy: -46.350469737917 gnorm: 0.000918789386 xtb: 6.6.1 (8d0f1dd)
N           -5.00419087684373       -0.57081083538004       -0.04208039653622
C           -3.95936071312677       -0.09406521315682       -0.13014499105710
C           -2.69521376307872        0.48217609092925       -0.21599161979696
C           -2.40038666894002        1.77154271680793       -0.62961612854058
C           -1.01600018665469        1.96529029089906       -0.56857391706789
C           -0.38204359521378        0.79364783608746       -0.16263645918910
C            1.00491700121680        0.70771486348766        0.05562660364918
C            1.81205712742898        1.84847528338896        0.23940382871160
N            1.39559273989294        3.13482375283942        0.52201974199186
C            3.16189387343703        1.48391441232326        0.10223692377161
C            3.23228505497517        0.14436074979196       -0.21368833183127
C            1.93551787722951       -0.41976081238713       -0.17129879279721
C            1.75135344107786       -1.79386090638969       -0.28410049876455
N            2.72682713528225       -2.50735397881678       -0.90737342375486
C            0.77753889828223       -2.62210998298457        0.36597724372905
C           -0.50205656234001       -2.46404387802510        0.78628303207704
C           -1.48511821361278       -1.47238269311034        0.55926179970291
C           -1.45885675288877       -0.20262296263709        0.06541954729967
H           -3.12080121496536        2.50209772860432       -0.95350016914198
H           -0.51818107359628        2.86173936343541       -0.88390368414856
H            2.10961022638144        3.71164258954315        0.94252117136021
H            0.49961206822787        3.20074591857467        0.98349180086728
H            3.99683176505235        2.15021302790712        0.22620327035984
H            4.15310763168171       -0.40001583721171       -0.32473125150994
H            2.76055923200294       -3.50810443192778       -0.82724263489866
H            3.49847886865824       -2.03270753897894       -1.33848818238246
H            1.18455238297930       -3.61042670507763        0.56516094983584
H           -0.90257004055441       -3.32925557787043        1.30409066323280
H           -2.48783230219176       -1.82420322506622        0.78859623173011
