32
 energy: -53.523988197013 gnorm: 0.000752554762 xtb: 6.6.1 (8d0f1dd)
N            3.52277583246634        2.62069112864459        1.13169513504596
C            2.68910283865462        1.97330085119633        0.66549434575606
C            1.65797772158563        1.19337350702530        0.11432741953084
C            0.77992612239869        1.97041027250580       -0.74105618024179
N            1.43787493983589        2.93985233262949       -1.46268440172466
C           -0.58342781107426        1.93758598507742       -0.84617599783292
C           -1.57913689537842        1.11851868866107       -0.27701349651145
C           -2.89709722820228        1.49991474545003       -0.17497275422779
C           -3.61667936661260        0.36013023746134        0.28665663056824
N           -4.93820989212030        0.30736785038341        0.54671336312447
N           -2.84220867184343       -0.71238557074763        0.39866210366716
C           -1.58129490314493       -0.32463837344762        0.08309999773178
C           -0.59721651308511       -1.27859537783125       -0.04372004840295
C           -0.95567428963900       -2.66160317290296       -0.19310515659225
C            0.17117631263048       -3.39305537120742       -0.39085898263174
C            1.30015931016444       -2.52471431912727       -0.27340543794453
N            2.60045702034644       -2.97939764831230       -0.35009302384366
C            0.85535275521549       -1.21821356348358       -0.06505884997461
C            1.72030284741282       -0.16787435155700        0.38282554304681
N            2.81380156634085       -0.60705118011725        1.08241533272024
H            0.89292872486273        3.69487163192217       -1.84516105047138
H            2.38456080950354        3.16592040052140       -1.20314975590743
H           -0.99952817650805        2.75934110744383       -1.42350198262741
H           -3.31724246009239        2.46623466159248       -0.38000555117034
H           -5.29334470381557       -0.52754901256857        0.97914654537264
H           -5.46408227092327        1.15872092399963        0.62879218154072
H           -1.97345158710564       -2.99644386985011       -0.21179682994351
H            0.23831736581235       -4.44704740167213       -0.59303056441379
H            2.70999496077599       -3.85431359973036       -0.83988356325986
H            3.29467656903981       -2.28617894247175       -0.58631863721588
H            3.40613446097082        0.07861539543515        1.52295700977627
H            2.76245171612783       -1.51595596172278        1.50863304745715
