24
 energy: -44.553402154260 gnorm: 0.000955224259 xtb: 6.6.1 (8d0f1dd)
N           -5.06998809960412        0.22870499085951       -0.38028503376480
C           -3.93831465304194        0.37776560491974       -0.26164966799658
C           -2.55771844520012        0.58017664060371       -0.12439232007510
C           -1.95067943848877        1.76775608369733        0.30128107998477
C           -0.56395431706677        1.59534788725836        0.25317805501008
C            0.33439959633681        2.62521718995551        0.51535682089886
N            1.45925311476218        2.82835024205771       -0.09211916580615
C            2.48676182009717        2.23022055502247       -0.55309084666975
C            2.99999143403772        0.97134239014232       -0.15607928372282
C            2.31419254785972       -0.16987394169743        0.14625981233956
N            3.07117440144626       -1.28148772139705        0.38729947594411
C            2.27616789643056       -2.31583186445620        0.34098299021277
C            0.92120039482699       -1.96102677060861        0.07773470151645
C           -0.09078961189523       -2.92037619977357        0.00021240754875
N           -0.86358423575834       -3.76934013020804       -0.05576530874002
C            0.87362536035318       -0.56366948467858       -0.00073312267667
C           -0.30502668789315        0.19320310255261       -0.14050983777717
C           -1.55901479452782       -0.37969764183085       -0.36383101703749
H           -2.45962711339031        2.67758495938457        0.55880698097880
H           -0.01371190887815        3.46796784790864        1.10706288896487
H            3.08517938978334        2.81635007253290       -1.24606726800840
H            4.07574213085481        0.85195063709865       -0.18678878098256
H            2.64415149307947       -3.31392294359152        0.50103463361163
H           -1.74994548673104       -1.39237802267363       -0.66090072897518
