33
 energy: -58.040371445868 gnorm: 0.000628251451 xtb: 6.6.1 (8d0f1dd)
N            3.96078393208587       -2.60894085963444       -0.81533100258314
C            3.09969964262704       -1.92750653006733       -0.46592378344592
C            2.04675290090797       -1.10132273095506       -0.03741868628143
C            2.45993012786122       -0.11332579237043        0.95353194059149
N            3.35041344958048       -0.59334592389525        1.87061151505532
C            2.15524996221402        1.22051986464951        0.98939376176629
C            1.34276103518916        2.01256690422414        0.15462064554223
N            1.61890062731972        3.29629330086449        0.02614758591040
C            0.62838638237088        3.86697528941600       -0.70318507453237
C           -0.40908289766146        2.99990346122723       -0.93484604073862
C            0.00572479560269        1.73665732737588       -0.43154434493244
C           -0.79223320121234        0.63457127161270       -0.20951329376417
C           -2.23684466821193        0.72783578645496       -0.01094182244903
N           -2.94071269915022        1.87714897264750        0.06204809542788
C           -2.73256194342692       -0.55217782845086        0.17622769996751
C           -4.04302308241865       -0.90741529030919        0.47784769237117
N           -5.12073267544357       -1.21918984447589        0.73767979488958
C           -1.63681957022951       -1.47830439599575        0.04462171686260
N           -1.80904111950081       -2.82843088144895        0.08620496095280
C           -0.45576206658629       -0.76322790805235       -0.14130724771730
C            0.78834635580014       -1.39623285565698       -0.51731512498917
N            0.64236491843449       -2.48673869886990       -1.32764775846862
H            3.78063680209494       -1.48960309030499        1.71014445453177
H            3.86563798365266        0.06614899843148        2.42981621036921
H            2.73369983304246        1.81264850412994        1.69016546552797
H            0.72026891295953        4.89136787187123       -1.01749803091208
H           -1.27700919786770        3.18790675545222       -1.53837594603927
H           -3.87210774037997        1.83820588683771        0.44263859882446
H           -2.42670125802041        2.74031204844008        0.14690865197751
H           -2.68566381332826       -3.16190119394679        0.45445247483195
H           -1.00010539281415       -3.40292551059624        0.25721059216532
H           -0.20645830399531       -2.57260176306159       -1.85995589519702
H            1.47187224350261       -2.91469804474419       -1.70839134531475
