28
 energy: -51.443490349319 gnorm: 0.000840379786 xtb: 6.6.1 (8d0f1dd)
N           -2.13106561105474        3.97060069039287       -0.72254895786461
C           -1.66846221698391        2.95504539056621       -0.45373648937009
C           -1.11306778954654        1.68701853688302       -0.13987013953097
C           -2.04074360324837        0.67108392743864       -0.19837667202286
C           -2.05783820014069       -0.70482640252656        0.10013207834494
C           -3.38440437678886       -1.17802182596607        0.24166571426153
N           -4.46036193830766       -1.56621411381001        0.36009799261525
C           -1.06842992472578       -1.70060904962369        0.23450623826061
N           -1.50383740135113       -2.91152003238786        0.64148610764317
C            0.32177629928507       -1.64811219019100       -0.09577311486346
C            1.03971555721223       -2.79440267579247       -0.43386609108713
N            2.36749126699010       -2.60514182229603       -0.56347739482968
C            2.59320526660031       -1.34401504434257       -0.25173209411986
N            3.78514605454394       -0.77273211696817       -0.23167658409620
C            1.32436336889891       -0.60890520187284        0.01177739974028
C            1.32911226422943        0.73313950663122        0.24912548333702
N            2.53622170652727        1.36581646333692        0.49664099247225
C            2.28244480839101        2.63982267946054        0.64814761840659
C            0.91276625491200        2.94769513863434        0.46818712755578
C            0.26468111138969        1.75676030199583        0.21832581220476
H           -3.03707099686904        1.03481273532813       -0.44515185536853
H           -2.48413782959878       -3.06605961702339        0.81609808918987
H           -0.86270801269297       -3.67735965899719        0.74089433221445
H            0.64771653720245       -3.77348276037815       -0.64972067066746
H            4.59846028435831       -1.31253095744223       -0.47307295294355
H            3.78838854264789        0.20777707843704        0.07341978652189
H            3.07292569268466        3.33275907553275        0.87830005409632
H            0.47449116473461        3.92482381138164        0.51965229879902
