27
 energy: -46.130729963364 gnorm: 0.000783346930 xtb: 6.6.1 (8d0f1dd)
N            2.65561046228963       -2.83923028262635        0.74046091865260
C            1.81557090194225       -1.97795641181725        0.11108624241505
C            0.61994140930751       -2.54595707268369       -0.42338092366286
C           -0.63184896821864       -2.00431381672879       -0.51929249694423
C           -1.23019417205366       -0.78251610424726       -0.17549782589362
C           -2.63466378886780       -0.63914869303078       -0.20731498961967
N           -3.55251565805404       -1.58437523265912       -0.54539580069777
C           -3.00640686471255        0.68450944036544        0.12333574846362
C           -1.86720659753458        1.41717310995288        0.35044999387902
N           -1.75378394937501        2.69861186318547        0.73348047010012
C           -0.70305753764264        0.54074541080843        0.17766915555562
C            0.55435147798284        1.06207210727138        0.20702159698806
N            0.78953717663763        2.42296103491893        0.23090886601571
C            2.01386567853283        2.55501137921212       -0.22004711206955
N            2.69980880546157        1.43326207809764       -0.49680897967958
C            1.87433759921987        0.44329547027012       -0.16079147670526
N            2.28603771355035       -0.77675520919676       -0.02778284526954
H            2.42383058094430       -3.80915854650070        0.84492821817750
H            3.53068025725813       -2.49120881447443        1.09012746172742
H            0.69879752277380       -3.60214498267137       -0.64976083858413
H           -1.35901114749457       -2.72312092984328       -0.88656802807704
H           -4.51623918749849       -1.38257226497827       -0.34345696756179
H           -3.28950581734516       -2.55418902861412       -0.54708975480554
H           -4.01821108969646        1.04142584600952        0.18859109334837
H           -2.55231109987793        3.30453830187663        0.65407355933565
H           -0.80133473553998        3.06825382411038        0.66196439536797
H            2.46300639611066        3.52409917809509       -0.35555089105592
