36
 energy: -66.024307125712 gnorm: 0.000823481436 xtb: 6.6.1 (8d0f1dd)
N           -3.84989798891480        2.84891132383767       -1.52473814726832
C           -3.10294951669130        2.16611873947221       -0.97300609808396
C           -2.20317576810780        1.32811944610661       -0.29489005791863
C           -1.36818779623092        2.02494906937555        0.67944948918998
N           -2.03050260692954        2.99451947885049        1.37463458306495
C           -0.02061305721728        1.89829045114438        0.87675038673003
C            0.95277116628896        1.05744873170834        0.29146900966610
C            2.27957576427067        1.48938908868501        0.17045764624101
C            2.76604273403311        2.76165159752409        0.45745667811513
N            3.19545495758658        3.80458587653747        0.68900594993875
C            3.08203447978993        0.42653104180251       -0.34768687142246
N            4.39194125921221        0.51700015353062       -0.64584471082643
C            2.26935162738102       -0.70799606950424       -0.45145295174669
C            2.71595239062152       -1.89793207943254       -1.00982643258673
N            3.14567607499998       -2.86598553802654       -1.46924437903647
C            0.93317349986151       -0.36195768151986       -0.05257437126277
C           -0.10655779082117       -1.24609702031089        0.16826197780621
C            0.03510876122896       -2.64531412096594        0.63142373897268
N            1.16341988081810       -3.23470707594354        1.04815166326494
N           -1.13429437300897       -3.21264284710830        0.82915163352096
C           -2.07541180517630       -2.30275099005364        0.45437722549700
N           -3.38194287284612       -2.66823868876063        0.44319682981393
C           -1.51798252934849       -1.06387059077974        0.09840012160133
C           -2.27978949769101       -0.02151754158202       -0.55249906916518
N           -3.24238084208928       -0.47388174276559       -1.40597858020941
H           -2.94688005323169        3.27508034369942        1.06581981468712
H           -1.49374218396570        3.67434299008145        1.88706360933563
H            0.41317990815516        2.67366135671208        1.50273678472361
H            4.84986945155210       -0.24820177237984       -1.11037649955243
H            4.84193189055375        1.41582832894443       -0.62985810381346
H            1.06858295584380       -4.18474965613760        1.36742810028748
H            2.05569879667227       -2.94834225373696        0.68113698847239
H           -3.58928569857851       -3.53107857401875        0.91845165638935
H           -4.07966362271611       -1.94350071183159        0.47669915102409
H           -3.17579922155066       -1.41713283683131       -1.74805717519991
H           -3.74123909705374        0.19637886007762       -1.96927347154921
