25
 energy: -44.273603833055 gnorm: 0.000613004549 xtb: 6.6.1 (8d0f1dd)
N            5.08724667845090       -0.19587908071117        0.28050974393767
C            3.95534077129289       -0.36245557954572        0.19418892036599
C            2.57381226967360       -0.58388136289227        0.08982962708343
C            1.95873745465557       -1.81180931873536       -0.08469051031571
C            0.55432337428993       -1.63391327810638       -0.09288999900033
C           -0.23778275017931       -2.75344004479310       -0.19148997528153
C           -1.60638101899737       -3.04696321920988       -0.10400301426143
C           -2.74358065227513       -2.30115111431645        0.08859840872189
C           -3.01416613990119       -0.93041712848854        0.17758353273293
C           -2.28894707376801        0.23280784307489        0.08902117248801
N           -3.05253231793487        1.36469691529963        0.10048154775637
C           -2.25146235242830        2.39030354648943       -0.02049571533276
C           -0.88341136334393        2.00618137595636       -0.08375951339322
C            0.13478608296161        2.94884813340073       -0.24405656873218
N            0.90992094592405        3.78523482012102       -0.38867463037133
C           -0.85370747730863        0.60617402217934       -0.01089390520159
C            0.32480424815195       -0.16076932412905        0.03482574393629
C            1.57520810030910        0.41963702635578        0.15312107072333
H            2.46074652111942       -2.75789731878014       -0.16607677798139
H            0.35891883531557       -3.65215314276722       -0.32392984355045
H           -1.80185946979561       -4.11121589221362       -0.18166068941638
H           -3.64306823600109       -2.90305659624094        0.16117437699536
H           -4.06829520420697       -0.70125180035681        0.29825726377635
H           -2.62757831321187        3.39687609609350       -0.06653194485445
H            1.78575642100742        1.46313634971554        0.28143046927553
