28
 energy: -51.451871138474 gnorm: 0.000525887443 xtb: 6.6.1 (8d0f1dd)
N           -3.19389115966332        2.72919553526227        0.65017756646952
C           -2.21855725130867        2.20651188900306        0.34383805422536
C           -0.98040543316425        1.60892401875828        0.01627445781358
C            0.09548244246178        2.48517549602572        0.00633210604115
N            1.26044109246906        2.38212088782127       -0.57349154865408
C            2.18934310296360        1.52047129854731       -0.77245802415537
C            2.42226362175130        0.29321405509726       -0.12744172807101
C            3.68870320358935       -0.29041848617841        0.00797646225185
N            4.88280216660227        0.25997851543844       -0.31336563139239
C            3.53495870237758       -1.60409417903581        0.54915378953260
C            2.20717249755774       -1.86231103626184        0.68766207064549
C            1.44492224066662       -0.70901376375539        0.29578879290341
C            0.07820707835768       -0.80459633464549        0.15219480480842
N           -0.48202282133755       -2.04482227655387        0.26837150066977
C           -1.76772003962322       -1.93293846256051        0.02194797549862
N           -2.61291299452126       -2.96669285260661       -0.00358342851261
C           -2.15308282566556       -0.55257640744621       -0.22181159610490
C           -3.46149981403892       -0.19265480341738       -0.53033886374338
N           -4.56363196378118       -0.03126157904537       -0.81865875332107
C           -0.99107101360903        0.19436286576831       -0.12204439125615
H           -0.09830929329623        3.48558978636907        0.38880450425035
H            2.94840108198376        1.85790265490219       -1.47796212953689
H            4.93954657734947        1.23032348562496       -0.56390829078445
H            5.72532060687901       -0.19655647005212       -0.01262446801978
H            4.35004758177678       -2.26887351383228        0.76969533448043
H            1.74875504119244       -2.76640704081804        1.03586687898045
H           -2.26586312669713       -3.89111048740731        0.18019429034369
H           -3.58459412727243       -2.81882350790061       -0.21436266886188
