29
 energy: -49.573623932483 gnorm: 0.000923168600 xtb: 6.6.1 (8d0f1dd)
N            4.34530209870142       -0.77473705448214        0.66630660217565
C            3.14162232442130       -0.27661079092520        0.33874624305253
N            2.89584103047727        1.04420251413384        0.41020798757690
C            1.63067313016025        1.17132512507520        0.00404329375971
N            1.14849546274144        2.30688178537111       -0.36755384824011
C           -0.01943285535354        2.81969638625832       -0.64486494826606
C           -1.26959697889140        2.54652547901061       -0.13625953650037
C           -1.86026575559852        1.35561608836114        0.33788175526991
N           -3.07731541525984        1.55979892628518        0.95288485148459
C           -1.52827854518799        0.01545916404578        0.05663894869444
C           -2.49314858632144       -1.02020471080015        0.07000346752333
N           -3.86364495653565       -0.89576344933004        0.22358892766618
C           -1.87806131587294       -2.26492547024560       -0.12608234283561
C           -0.51570875815262       -2.07289896294525       -0.24949723270355
N            0.43018952056792       -3.00590170089469       -0.48525399445260
C           -0.23372018478148       -0.65610655935579       -0.18154186550841
C            1.06505111802501       -0.22205647844278       -0.15804123201582
N            2.12646171542069       -1.06294111043134       -0.03391853787400
H            4.56335768074953       -1.72033208833219        0.40830299397117
H            5.08892093600844       -0.11640073686866        0.81552226724071
H            0.06776730349560        3.72887165485725       -1.23866740527027
H           -1.96184297541919        3.38261476215889       -0.16008975532960
H           -3.25723301462546        2.49421745218852        1.28177044250243
H           -3.42985581335649        0.81502842748164        1.53100753785074
H           -4.36480753877010       -1.72355358302651       -0.06772654850898
H           -4.26012032945004       -0.04631536804284       -0.15376279707528
H           -2.39471320169763       -3.20583922672063       -0.18818058657587
H            0.21254143170518       -3.96631865965892       -0.28040488992330
H            1.38008315479966       -2.65641263082485       -0.35117319298828
