33
 energy: -57.251337693744 gnorm: 0.000509543484 xtb: 6.6.1 (8d0f1dd)
N           -4.85828100521395       -1.66325510036768        0.82920003082860
C           -3.81551415078175       -1.26311948428226        0.54213806525987
C           -2.56263854559403       -0.75926932867393        0.22118610980770
C           -2.29753647353453        0.59169852431309       -0.19375785332923
N           -3.31103004656730        1.48797224443474       -0.44855869659414
C           -0.92583026988345        0.77743031920675       -0.30189727024791
C           -0.35526902902850        1.99951255593422       -0.84062641165468
N           -1.14993368883586        2.62142471063945       -1.78413848732691
C            0.73506607302627        2.67702988948838       -0.38901346775382
C            1.60982777272197        2.26184006628905        0.67807574091135
N            1.89157105591816        3.18267783585740        1.63036567196960
N            2.26789652731145        1.15644181004123        0.74027250353089
C            2.24114707492571        0.00271894183856        0.11382628278698
N            3.35309244453732       -0.65727536589389       -0.14730801417788
C            2.97117523458510       -1.92448357293435       -0.47823099507454
N            3.90930801770025       -2.83037692393017       -0.81688566513990
C            1.59169212529848       -2.12386229504777       -0.38234469773206
C            1.03806898115917       -0.87368869240697       -0.08788248975221
C           -0.29279956647069       -0.49774402854157       -0.00995400320800
C           -1.34893851647732       -1.43124430036626        0.28812772064433
N           -1.17990581240816       -2.74168383149995        0.63832199152624
H           -3.06369205662760        2.46379411171616       -0.39182740253852
H           -4.19844603134041        1.24972928227745       -0.03145440025834
H           -0.72156906309821        3.36142178177713       -2.31669174399617
H           -1.78088931933768        2.02838830245006       -2.29746649635296
H            0.91937994126625        3.66558165329446       -0.79083231869306
H            2.51367323770558        2.93184616350035        2.37858472676987
H            1.39317589326561        4.05221788830048        1.66528495828197
H            3.63373249807437       -3.71909731766621       -1.19420729246293
H            4.83924256655740       -2.49065591495431       -0.98901868791341
H            1.07658645703214       -3.02061875655777       -0.66514825348056
H           -1.96443096650060       -3.17299400095766        1.10330882376888
H           -0.27018095688502       -2.99145531117910        0.99396307830114
