26
 energy: -47.210476093074 gnorm: 0.000469192673 xtb: 6.6.1 (8d0f1dd)
N            4.70531526909917        1.02708173210472        0.80957838059844
C            3.60297163550763        0.91404692041516        0.50786741026515
C            2.24853601366130        0.75762839576482        0.12528982506745
C            1.68547651287473        2.00721038333782       -0.39236427768851
C            0.45185956987435        2.51752432894149       -0.41830448280594
C           -0.83385440950509        1.99522713334616       -0.01792958121984
N           -1.83331636539440        2.84698252425598        0.11423908067451
C           -2.93273718848126        2.08296298154292        0.34784139345107
N           -2.72872837513196        0.79534115272591        0.32828684077501
C           -1.36498975668765        0.65229230099201        0.11814405077452
C           -0.80119580111343       -0.60054886166623        0.00895795848515
C           -1.66598960030219       -1.82586997142251       -0.07677185685560
N           -2.97594402598836       -1.74778617544040       -0.04597946522344
N           -0.95134333021794       -2.92157640961385       -0.20224215643212
C            0.35110457005508       -2.51889467994175       -0.15581839977457
N            1.31479302468027       -3.43591609187593       -0.23736495417944
C            0.50845255531816       -1.10734875558352       -0.03477357133644
C            1.78334636537201       -0.50993878637680        0.22363062678589
H            2.46985261125271        2.65859148248714       -0.76647918983290
H            0.34705297053714        3.52461814831053       -0.80368225351549
H           -3.89866019280024        2.52077121516954        0.51862959600970
H           -3.33619855304518       -0.78818852250424        0.11958815908928
H           -3.53777798048223       -2.58011330877301       -0.10910427544758
H            1.04762888352906       -4.40148807337825       -0.31801456286075
H            2.28658512307116       -3.18189803986579       -0.22587105206236
H            2.51839052191676       -1.22730570995209        0.58318588745868
