29
 energy: -55.985670155407 gnorm: 0.000795320286 xtb: 6.6.1 (8d0f1dd)
N            4.01542693798649        3.96093401906417       -0.00359286387053
C            3.13296846789759        3.22736515325367        0.03117017511629
C            2.04568076952397        2.34482302807526        0.07607127371613
C            0.74527943253325        2.67560272557871        0.49928362223597
C           -0.09386480160894        1.57136055921111        0.33201410153063
C           -1.45063583205773        1.70089202703514        0.67180907161080
C           -2.58868642325275        1.04295023635841        0.27184649546758
C           -3.83431628874780        1.57343786727936        0.66032545221425
N           -4.86395127857031        1.99157479096906        0.95154797423314
C           -2.65881395624364       -0.06996051142336       -0.65748816315904
N           -3.60412154476408       -0.01873475622092       -1.61117256972794
N           -1.95641887773703       -1.14732994697373       -0.56856890315718
C           -0.81865972694185       -1.60668880316227       -0.17399974125937
N           -0.66395771180490       -2.90894464761469        0.07715872243475
C            0.65275322075680       -3.13965161307361        0.09199074024985
N            1.15633465170472       -4.35062216166978        0.29965107538824
C            1.42708485125878       -1.94466827403873       -0.13067197521596
C            2.81751594111664       -1.96086937982729       -0.14756527931372
N            3.96286103057429       -2.07488481623025       -0.15895601791142
C            0.50802923326008       -0.89793986834116       -0.20503142190812
C            0.76004877590375        0.47268350606080       -0.14758583374401
C            2.05861534485521        0.99784429482625       -0.28251727819714
H            0.43851633501917        3.64226330691999        0.85508449519558
H           -1.65069969716651        2.58727972295525        1.26809702054018
H           -3.74390638671814       -0.81951662047344       -2.20472940394193
H           -4.28841206393254        0.71888125270837       -1.60940165721806
H            2.15102608262172       -4.50164335406779        0.27263757492059
H            0.52963092786633       -5.11586029270065        0.48303251163825
H            2.91997596396873        0.44905442242087       -0.61276431156888
