26
 energy: -47.990519864130 gnorm: 0.000920372991 xtb: 6.6.1 (8d0f1dd)
N           -4.62675226497006       -1.19459079346713       -1.04562034542491
C           -3.67832090124304       -0.63821522995929       -0.71153704077797
C           -2.52233537194792        0.03965889257654       -0.31857688623276
C           -2.35348134289434        1.44686092689112       -0.28837838276174
C           -1.08616413084162        1.76548709532909        0.16232364833211
C           -0.65181963631577        3.07501782028239        0.37597999993420
N           -0.34797136344441        4.16913909944999        0.55861655219521
C           -0.34741023437835        0.53616502213284        0.32729620969058
C            1.00480364750825        0.37747606208288        0.23304207090381
C            1.91633655536102        1.51638028953479        0.24025542580392
N            3.14842421596841        1.17451923919285        0.06362005350722
C            3.16177814975314       -0.19238345764021       -0.13019774076951
N            4.35668792435224       -0.77316335058632       -0.32928620386569
C            1.88418931581754       -0.76593069651510       -0.02674539416471
C            1.70637581805069       -2.15084148600600       -0.25143577884389
C            0.72732875882285       -3.04629117127234        0.06090549912804
C           -0.49971248710296       -2.78687007104198        0.72341318076597
N           -1.26686275116438       -1.77963843816462        0.60244044073328
C           -1.35407425301916       -0.55909303693700        0.17332574394220
H           -3.11379389216326        2.15669964632926       -0.56194493035327
H            1.63870846464480        2.54002791978281        0.40209488134592
H            4.43673713459041       -1.73531194422197       -0.60528360002089
H            5.14563948851771       -0.16125003579558       -0.44657147469278
H            2.59761210188168       -2.61367699826916       -0.66613648507447
H            0.95186795429116       -4.09318745252493       -0.09094224751889
H           -0.88696166626618       -3.57468152739326        1.36596000521598
