23
 energy: -35.222696455323 gnorm: 0.000661303215 xtb: 6.6.1 (8d0f1dd)
C            0.66853887123330        2.64499303208945        0.00391685065042
C           -0.74062208468757        2.59569995580515        0.00340039100727
N           -1.65167518352598        1.67590756344789        0.00214429848078
C           -1.68789598778139        0.35704418683628        0.00087523705563
C           -2.93234876684652       -0.24824431651146       -0.00019169267032
C           -2.78279130676855       -1.64939233629627       -0.00138389271654
C           -1.44905004268347       -1.96408007356611       -0.00114704564666
C           -0.66670375859779       -0.77328205081813        0.00021785786226
C            0.70409948424526       -0.79045533691747        0.00057790119766
C            1.45441436874637       -2.00931431590922       -0.00042707624351
C            2.79146264908887       -1.72666765680412        0.00027405834891
C            2.96105301906820       -0.32521159451014        0.00173756185362
C            1.72635926032761        0.29982583360359        0.00196513826465
C            1.66378887078741        1.70055137882849        0.00332536219454
H            1.03639873106194        3.66555378057004        0.00504555369175
H           -1.19548732605065        3.58818122274679        0.00425086788608
H           -3.86128502666572        0.28855029664666       -0.00006884418271
H           -3.59398304111298       -2.35621561299672       -0.00231982097978
H           -1.05612968473912       -2.96218726418327       -0.00186733744173
H            1.03144246011225       -2.99418563211494       -0.00156456289687
H            3.59154826082745       -2.44535878986003       -0.00020297314516
H            3.90990278615432        0.18003450717690        0.00254101267954
H            2.66211947070684        2.13068666773661        0.00409458255013
