35
 energy: -56.670606696805 gnorm: 0.000756885680 xtb: 6.6.1 (8d0f1dd)
N            4.73257665743885       -1.86461218000837        0.91738310979301
C            3.71803845075439       -1.39507472024003        0.63507244254377
C            2.50195154879903       -0.82319767767698        0.28726569809682
C            2.29325506599241        0.57494664327257       -0.00640680854839
N            3.29068164241984        1.50607449301750        0.04620662995073
C            0.94237042087074        0.79336536240556       -0.22112132289301
C            0.43284463156413        2.03672204819367       -0.77950559771280
N            1.28776915931022        2.60439316254005       -1.73113890598999
C           -0.65477178811990        2.73218784246531       -0.39468793572597
C           -1.61848957358398        2.44735492183112        0.64149941565955
N           -2.04907994963129        3.58444084378373        1.30115630040829
C           -2.27643487498724        1.28000052699011        0.89022465223775
C           -2.23101053644582        0.00993470466713        0.25418214852137
C           -3.31929080594416       -0.82559387654920        0.22509345284324
C           -2.95150146173484       -2.06608762734601       -0.37658427927656
N           -3.81093101932121       -3.10148613577279       -0.60166708995333
C           -1.58824910924892       -2.05066924636612       -0.61082150023428
C           -1.07924775467095       -0.78422052979598       -0.24276096565846
C            0.26308376690833       -0.47038638572172       -0.12973254316426
C            1.28229656871136       -1.46885411172831        0.16448673333554
N            1.05561132112790       -2.79389826843913        0.38513863607952
H            3.09280669962094        2.40328983528254       -0.36705750820386
H            4.23807681873247        1.17077275233879       -0.01099951050638
H            0.87642530985246        3.35350951754922       -2.26953353958681
H            1.77343923202449        1.93096249533107       -2.30598508112150
H           -0.81126551521371        3.69765311867219       -0.86675770204670
H           -2.61421304104726        3.44722546197856        2.12328559449115
H           -1.40554536275924        4.35688220213563        1.34803564766837
H           -3.08149853039062        1.36077905927732        1.61650014152675
H           -4.31086589575552       -0.58082232510369        0.56099847212581
H           -4.79518752748908       -2.89098246340434       -0.61042379714659
H           -3.51157752067998       -3.82358224920670       -1.23629525872380
H           -1.03934220537875       -2.81435962470302       -1.13030561971011
H            1.76932194597557       -3.28520537597223        0.90209023712514
H            0.09944133149931       -3.04924421369771        0.58636151089558
