29
 energy: -55.189548446490 gnorm: 0.000647105015 xtb: 6.6.1 (8d0f1dd)
N            1.67810604725539       -4.07448033939473       -0.20154343861073
C            1.40360055359979       -2.95906597431973       -0.17650734352182
C            1.16217667099545       -1.56959017965890       -0.11670894252368
C            2.34036101526927       -0.77350004090144        0.15087453821832
N            3.30178975364129       -1.35774893085393        0.89062555410790
N            2.62823256724403        0.37256998592302       -0.37913736176362
C            2.02813794719703        1.47720387378697       -0.73609078658449
N            2.64122051644482        2.21924757069823       -1.67370866948980
C            0.89160108986176        2.02742329679043       -0.08272042006362
C            0.72387201357887        3.37205756052882        0.23592986343486
N           -0.45415912283360        3.60720382715439        0.84019224213489
C           -1.10427079460156        2.45880109062851        0.86615471842387
C           -0.33962847887213        1.38707936006124        0.33116359680419
C           -0.84708114898772        0.10902374636898        0.07827813214426
C           -2.19797118035274       -0.23836870445792        0.08921707742306
C           -3.34862273721599        0.51056726964001        0.30886817545085
N           -4.36728428932351        1.02379836216799        0.46635346041103
C           -2.26947210966378       -1.62650428695052       -0.29092867886425
N           -3.39218013444386       -2.32426943088593       -0.45115377940531
N           -1.06493909930602       -2.15402533993714       -0.47637348296165
C           -0.15958090436696       -1.18483360699281       -0.23824298790565
H            4.18206217407681       -0.88676501899481        1.00953064130312
H            3.21799529020392       -2.32399968717119        1.15868483213110
H            3.51337511888011        1.91143426834579       -2.06794499779091
H            2.29377733250308        3.13815278409733       -1.88347625905148
H            1.43725756893885        4.16776066185065        0.11119802826445
H           -2.08782456081319        2.39330516496656        1.29100861502388
H           -4.28589409344749       -1.89438334842018       -0.28415367827663
H           -3.33217539916125       -3.28677159326900       -0.73470955346227
