27
 energy: -51.721381917996 gnorm: 0.000682098751 xtb: 6.6.1 (8d0f1dd)
N           -4.44047910831964        1.95510391279857       -0.78772614053832
C           -3.71914918255858        1.08409365352327       -0.58587107912802
C           -2.84016808101907        0.02861734324513       -0.34424308644385
C           -3.13812936927736       -1.34881438306576       -0.33390328468095
N           -2.10179055361576       -2.12212766444980       -0.03592810147198
C           -1.04096545831277       -1.31833763857319        0.12591446542753
C            0.25159452404330       -1.77362504805207        0.19309474438602
C            0.57289596995710       -3.15253172212705        0.46933589606214
N            1.85736953363144       -3.35264304851497        0.51059351034325
C            2.45296604463727       -2.17917374120488        0.15833757748252
C            1.54678420168402       -1.14830441598880       -0.02090125286070
C            1.95602823428151        0.14949881687036       -0.49869884074630
N            3.02130149228474        0.13875745614304       -1.32451107637128
C            1.47029614253525        1.38800434885086       -0.08213904045787
C            2.21906358644640        2.53223753653267       -0.40312577186417
N            2.84107052278054        3.46957973210321       -0.64525440987059
C            0.29974533702238        1.64095232988208        0.72866707979790
N            0.39660710235717        2.57745436475259        1.69251255979492
N           -0.87982103255361        1.17335507687908        0.47551988730123
C           -1.49254417400577        0.11973171888950        0.05645050763499
H           -4.10051832503413       -1.78641042138377       -0.53539659856844
H           -0.14654760666818       -3.91399593120860        0.69893261156825
H            3.52690121793521       -2.13258171079082        0.11491319626901
H            3.45683877192732       -0.73199642184894       -1.57168372845935
H            3.45092448710211        1.00302788217687       -1.61221463364785
H            1.23224740027613        3.13177095486395        1.77435092702584
H           -0.44375592523615        2.89620734149558        2.14591053111416
