32
 energy: -53.519828440251 gnorm: 0.000710075911 xtb: 6.6.1 (8d0f1dd)
N           -5.11228032797337       -0.13829952363668        0.24259421073933
C           -4.05809599339654        0.27879195337366        0.03683947186088
C           -2.78078969171118        0.77712433930739       -0.20229558692632
C           -2.48519989984987        2.08307622644822       -0.70975477750037
C           -1.13214650950628        2.23523476808372       -0.74339099157760
C           -0.51233562710728        1.01283753531286       -0.32299059653965
C            0.83127666211285        0.85542137014338       -0.05454608415151
C            1.72191332497157        1.95449738895297        0.40713666507546
N            1.32434108068973        3.20855684116880        0.66095522704527
N            2.93386298536319        1.53170728680090        0.65782170751615
C            2.93640765030602        0.19236369946661        0.34766092658236
N            4.07003388088011       -0.52000637891819        0.49512023910943
C            1.67472055299025       -0.27828189030981       -0.03601886862171
C            1.45199972978434       -1.59347372060805       -0.62409429449673
N            2.50922108962697       -2.02154250981197       -1.43183419858980
C            0.42739843301631       -2.42956894274061       -0.38144315911971
C           -0.72539392999576       -2.27174250636381        0.48306397184260
N           -1.03755046476239       -3.40946313681933        1.18663980576290
C           -1.57585711763800       -1.20861856861879        0.59049703609471
C           -1.58925885104344        0.07311261317499       -0.01695161214736
H           -3.22731295181483        2.80078602906716       -1.01074630828734
H           -0.60528869493096        3.07835982698581       -1.15394014262435
H            0.33988029943980        3.41816064873975        0.63839933016297
H            1.94376513892068        3.79354734742220        1.19586384746305
H            4.08957172973681       -1.47275584031047        0.17493258734052
H            4.92438448219937       -0.02130212226488        0.66592263229089
H            2.29592592872457       -2.82420414606553       -2.00697658584606
H            2.96410337457193       -1.28260090942306       -1.94833510555155
H            0.47233949860768       -3.40424313922002       -0.85974039854711
H           -1.95596564386799       -3.48308342953217        1.59217135482079
H           -0.58812571401402       -4.27129092180888        0.93033181946163
H           -2.47756290693074       -1.40956760399635        1.16369388655844
