29
 energy: -51.955566792523 gnorm: 0.000617403871 xtb: 6.6.1 (8d0f1dd)
N           -5.31947773342557        0.20700830955598       -1.12973802863951
C           -4.22045103180098        0.26560610301152       -0.80306557815504
C           -2.88310136089261        0.37226420571100       -0.40055679437281
C           -2.27762061951688        1.55759083987452        0.06923097601865
C           -0.92109730800023        1.32626203129236        0.26847130764757
C           -0.07704976511152        2.33920956535958        0.78655209970757
N           -0.68697292611909        3.28615538490543        1.53350482970707
C            1.27034408104400        2.61379565018176        0.46851881805857
C            2.28591301742181        1.92589944891536       -0.14261254362692
C            2.54959420890909        0.56409786416723       -0.38245164287333
C            3.84834494918867        0.37666474794986       -0.93365453859648
N            4.88963740649997        0.26895735729068       -1.40136262759382
C            1.88024952813024       -0.61862127032396       -0.07508355455781
C            2.55243862704916       -1.85460670115888       -0.04548774799012
C            1.65668003987548       -2.85619064187684        0.26300867996229
C            0.36009854128566       -2.30105357968983        0.35477024138054
C           -0.76472449394577       -3.05348904414656        0.70815852545082
N           -1.64849692947010       -3.71441591646211        1.02926237501299
C            0.43763772960218       -0.91110807713479        0.15210042885803
C           -0.68700186320109       -0.10114551621940       -0.02394937804847
C           -1.92790660107469       -0.63935713593448       -0.40695737221905
H           -2.78966291606719        2.49955031369494        0.14875249606252
H           -0.18815055234911        4.10194483411076        1.84367242746394
H           -1.65108822619986        3.18119983140271        1.79489081131305
H            1.53981567849545        3.63722228942349        0.71438666599056
H            3.13565019573631        2.55281480751124       -0.39862443034619
H            3.61047105008365       -1.97820778598986       -0.18072972500737
H            1.88806444806454       -3.89439774035983        0.41783308498985
H           -2.10146116961070       -1.64931310966227       -0.72222907659707
