23
 energy: -44.817508210822 gnorm: 0.000828970928 xtb: 6.6.1 (8d0f1dd)
N           -3.24432102635008       -3.63394675006101        0.35856172285217
C           -2.55482321228060       -2.73468724098410        0.18642695431710
C           -1.70138111053474       -1.62457606678152       -0.02784671418851
C           -0.46181709457491       -1.93866438024040       -0.67255072186563
N            0.66384599890714       -1.37273096082581       -0.50079115126877
C            1.28020392643419       -0.29423644376210       -0.18337661127562
C            2.62061474823155       -0.14801120989378        0.21912829178324
C            3.50613848174828       -1.16539840017893        0.58191958452036
N            4.23579403415269       -1.99701240613267        0.88778414507304
C            2.91699918174113        1.22583455671910        0.05662974716204
N            1.87552350128665        1.95078891624126       -0.30729741520920
C            0.81053622930427        1.13783531317922       -0.35221988087895
C           -0.47930740989610        1.57917373954646       -0.23483878252292
C           -0.79771169834900        2.98480670297038       -0.22674728087603
N           -2.06549485117965        3.20386680278440       -0.00853610896859
C           -2.64393896175690        1.99988562885919        0.21508753633710
C           -1.76075692699084        0.93026852774069        0.07845544386358
C           -2.20610652060865       -0.38583558224049        0.29759560780437
H           -0.44289019368782       -2.82992569414415       -1.29485454452818
H            3.88355761277830        1.67957223093660        0.18740279375785
H           -0.09295655363437        3.77387339201862       -0.40569911809182
H           -3.69093609012784        1.94487149818929        0.45224435309871
H           -3.21263468771017       -0.41631081184189        0.70674539160513
