34
 energy: -57.764098658182 gnorm: 0.000350664970 xtb: 6.6.1 (8d0f1dd)
N           -5.02785942631775       -1.60721111197077        0.47647797322714
C           -4.00780807246010       -1.10670070939732        0.28843454689555
C           -2.76802687371759       -0.51839228537869        0.05441435959560
C           -2.54594352633552        0.78237623970224       -0.45880938933121
C           -1.19216615190034        1.05332504890907       -0.45814604689416
C           -0.69251747310311        2.27860558410955       -1.00676513617550
N           -1.43788159271648        2.77680439700233       -2.02903260178147
C            0.31688658087373        3.09687442178820       -0.53553402821470
C            1.29885883875682        2.94391737550680        0.45595547930740
N            1.81414566799183        4.12559154559325        0.92731514896281
C            1.98037294907782        1.80019277978560        0.87928185469054
C            1.95552641515066        0.46466529540250        0.50221924840869
C            3.08163472351039       -0.34267325992937        0.69596720742857
C            2.81967840173742       -1.63325174008255        0.24464415505057
N            3.67350593696486       -2.67545564994331        0.19907705595211
C            1.44837180826566       -1.69822659796654       -0.14413722456555
C            0.91522873318445       -2.83750106295172       -0.73063111112751
N            0.55315909431855       -3.81930531906888       -1.21856515226471
C            0.86370249682477       -0.42624731347750        0.02515822885369
C           -0.50038135352460       -0.15787261909699       -0.01199876488689
C           -1.52583069127147       -1.11948095546287        0.28349068715649
N           -1.38682448826229       -2.31290125960133        0.93431167902843
H           -3.33884813270739        1.45935916931384       -0.72376439223335
H           -2.21832095315577        2.25196207320571       -2.37864162815578
H           -1.27187683701809        3.70011672558864       -2.38759783498234
H            0.29986213835434        4.09677853682380       -0.96056004354235
H            1.29311502763518        4.97389093304574        0.79335634984969
H            2.45593853254681        4.10222528497409        1.69990524850341
H            2.83450681966141        2.03405471847170        1.51012927496664
H            4.03163696189584        0.00315951964812        1.05963525432457
H            4.65213402960470       -2.52691997435840        0.36988881445533
H            3.39195854656999       -3.51713490331660       -0.27479695168204
H           -0.53614579366445       -2.83561213979694        0.81536523021290
H           -2.22474171196995       -2.87104009147405        0.98474519396859
