29
 energy: -51.162424632525 gnorm: 0.000891351732 xtb: 6.6.1 (8d0f1dd)
N           -5.09772303239646        0.06054645303562        0.42501938769354
C           -3.95700956549283        0.02685248896857        0.29074107298108
C           -2.57794408323300       -0.10118809661378        0.10056878131574
C           -1.59139480313168        0.80760934709584        0.36166828424180
C           -0.31204325987353        0.20682989661230        0.08656794438629
C            0.85089728806535        0.93590605676803        0.15499597276336
C            0.95520475411371        2.36397843540765        0.13831062127959
C           -0.05010241570323        3.32266176745894        0.25066116876507
N           -0.83136107215457        4.16283849058735        0.34837641230540
C            2.28387273963251        2.69893779664927       -0.12462941790238
C            3.07367622097489        1.54687884287482       -0.17501792680751
C            2.26565813761967        0.44376759902717        0.04846138205429
N            2.73230028505449       -0.73864169803010        0.38377489966259
C            2.42930653942410       -1.97856336878302        0.25345950986953
N            3.12126577031829       -2.85995686225471        1.01274245835400
C            1.52056907736573       -2.55351081267452       -0.71994877592286
C            0.25235473082290       -2.16691587356536       -0.96142984256909
C           -0.58044523126940       -1.15318596166133       -0.39680488711597
C           -1.96162598190247       -1.30735456872950       -0.41488857952244
N           -2.69715828009211       -2.36841606789754       -0.83188380531215
H           -1.73277856156481        1.79341689415169        0.75782699116447
H            2.63908700097968        3.70564700968974       -0.25909559290189
H            4.13568867231444        1.51691000222830       -0.31965915336077
H            2.95665309616948       -3.84641225995113        0.93811419444384
H            3.76649107687571       -2.51383001196137        1.70069285502543
H            1.89230314701643       -3.43782957897822       -1.22053233966239
H           -0.28585179874967       -2.79995018125918       -1.66196538929104
H           -2.26060882764094       -3.25463497581302       -1.00675234214570
H           -3.68837075824456       -2.35587656488502       -0.66597051919408
