31
 energy: -54.618782033329 gnorm: 0.000738077984 xtb: 6.6.1 (8d0f1dd)
N            5.50565256019564        1.97631824456975        0.56430981757113
C            4.47359214001347        1.50544488652807        0.37520551441451
C            3.22733081299567        0.92233657025064        0.13541459814446
C            3.02064342410630       -0.40118694653523       -0.33290880057845
C            1.66189336638304       -0.65833626637670       -0.38305777185823
C            1.17363621909162       -1.91836161310441       -0.89573562023950
N            1.93779009486722       -2.45596724756267       -1.88169811365194
C            0.15797490767266       -2.69406124139796       -0.38719111883922
C           -0.83185791978149       -2.33393548454967        0.56579786469700
N           -1.20233266842163       -3.26125298956718        1.48043096540661
N           -1.57095057364249       -1.26310437674184        0.53166211225111
C           -1.53743624384336       -0.04548674828600        0.09099232257881
C           -2.69793225127411        0.71704443103651       -0.13793884705723
C           -4.01006656121805        0.26112091154179       -0.18693908749888
N           -5.11229544116323       -0.06931920215501       -0.23838966546971
C           -2.30550966861466        2.07800206231388       -0.26134813251518
N           -3.14735775058409        3.09624444921499       -0.48073821233925
C           -0.90551746233813        2.16698938181379       -0.12887658369082
C           -0.37476320658028        0.89652496997886        0.01098165128669
C            0.98324031184853        0.56375525368927        0.02783911847850
C            1.98662097820429        1.51667508791893        0.30465174738593
H            3.81829821871872       -1.09393309715876       -0.53696778501633
H            2.77031371141596       -1.98124132177614       -2.18001674985470
H            1.78878081482329       -3.40357267321540       -2.18061045610245
H            0.13059216962487       -3.72776881164077       -0.71195550715106
H           -0.79215819008804       -4.17696791478362        1.47617712058502
H           -2.01718161570094       -3.08690670117734        2.04301016576628
H           -4.13228184775973        2.91942634999961       -0.58219388416573
H           -2.80888800776227        4.04116417834877       -0.52003089237628
H           -0.34816638380356        3.08087598481823       -0.20505094518992
H            1.81391044021629        2.51600981060192        0.65576498842901
