26
 energy: -43.186160210555 gnorm: 0.000580770228 xtb: 6.6.1 (8d0f1dd)
N           -4.87663161661543       -0.66484978652238       -0.31155202209344
C           -3.76261892013676       -0.39404227333857       -0.25884904056052
C           -2.38285003573682       -0.06597794361009       -0.19303734259193
C           -2.11937126521833        1.25631333082080       -0.52892629476168
C           -0.98978292462205        2.06091724122104       -0.47458489120144
C            0.32541842977810        1.88807442203046       -0.08141113223127
N            1.04412188160643        3.01347554533895        0.04703256604327
C            2.28060661977238        2.66557058316869        0.40962604149754
C            2.46438589732566        1.29106539034724        0.44180517242698
C            1.21996685003677        0.70405409296407        0.15285539981563
C            1.00314069460166       -0.65900165897137        0.01100695030001
C            2.04689572114368       -1.60890792313909       -0.09854461899859
N            3.37058068188971       -1.36259472731349       -0.34938269376802
C            1.52037839263246       -2.89741956251614        0.11120342598939
C            0.16460893618249       -2.80261671450772        0.33276804915506
C           -0.25237776590168       -1.45981568102649        0.18882448723958
C           -1.59042723510702       -1.17768286903814        0.17187222076292
H           -3.01124165947320        1.79215479059231       -0.84200585064396
H           -1.17643947149674        3.10073160693300       -0.72168474655716
H            3.00789012997412        3.42453926832365        0.64045895058005
H            3.35283095684146        0.78851997219420        0.76637975919433
H            3.58161149375285       -0.50941202549840       -0.84442398768732
H            3.90888292692394       -2.16449790164762       -0.63871796618347
H            2.09956789827054       -3.80344624803037        0.09693730712713
H           -0.50184513764103       -3.62653837997611        0.50899338210044
H           -2.20135076098444       -2.05121792839767        0.39132548374679
