25
 energy: -43.469249882151 gnorm: 0.000894309362 xtb: 6.6.1 (8d0f1dd)
N           -4.28442942876517        1.34948182783746        0.80866647098881
C           -3.20882504775344        1.15607550140178        0.45501838559699
C           -1.87817218102849        0.93952921630242        0.03043451080528
C           -1.08404692495629        2.06105531215478        0.02405087043065
N            0.06223785106263        2.29674291907901       -0.59816763058972
C            1.18033419916511        1.70671353889614       -0.73958749842591
C            1.67569903535250        0.53307505919474       -0.10128182482504
C            3.02241720106966        0.26942707817312        0.13910991169338
N            4.08842140003944        1.07654161609956        0.00607352550815
N            3.22436054928867       -1.02405391654673        0.59827956395429
C            2.07309489060512       -1.60692694234360        0.57067795139360
C            0.99038528176231       -0.71663950974404        0.14923357526101
C           -0.28434576681247       -1.15761131916220       -0.08372593109582
C           -0.61097188231073       -2.55842428597412       -0.19613753734959
C           -1.92891555721059       -2.68096402780772       -0.48974221928580
C           -2.52692410219383       -1.37603841117031       -0.49961098031240
C           -1.56639088648254       -0.43105722121550       -0.27500047028867
H           -1.51963353898741        2.97063909243408        0.43143212922390
H            1.87386461248093        2.21494542324990       -1.40950787752964
H            4.97924271652282        0.73449337947362        0.31979017364620
H            3.98009701697811        2.04774439598504       -0.22186908239990
H            1.96093683920835       -2.62063104243302        0.90555323890521
H            0.10613158489501       -3.35417226071671       -0.14163352858296
H           -2.45990806240020       -3.59436568348929       -0.68727721759941
H           -3.57315266722942       -1.18399228877869       -0.65105894522267
