31
 energy: -54.596087514718 gnorm: 0.000956588834 xtb: 6.6.1 (8d0f1dd)
N            3.23217236608537       -2.64858004561354        1.72808779788381
C            2.41277806869492       -2.32182933935903        0.99441898880568
C            1.38047485356209       -1.92675543414458        0.11094234721895
C            0.59348801973079       -2.87767268174630       -0.42338993518039
C           -0.50365005943752       -2.72088121741170       -1.34940849768768
C           -1.53271674581972       -1.86728350067274       -1.27229184725674
C           -1.82798755758480       -0.83729640300625       -0.29877838417465
C           -3.15615332724974       -0.55267281316485        0.08604454101798
N           -4.23962372141576       -1.28374708451152       -0.22930061678930
C           -3.19214537134044        0.63604058231002        0.87009517374156
C           -1.92618463371511        1.14320643477295        0.92265623908775
N           -1.49235083161858        2.16366743466323        1.68945973016620
C           -1.02429928505453        0.22589020344129        0.16867804360515
C            0.32009513675490        0.47379682328091       -0.07162986737519
C            0.99438021397006        1.73752830219092       -0.20948031300108
C            0.47234738426031        3.01932406752576       -0.29693793125568
N            0.09285061116327        4.10746065561134       -0.36227085770287
C            2.33854394132020        1.42979877985933       -0.44948874539893
N            3.36086178400044        2.27520988950688       -0.68449883166817
N            2.55927543549729        0.08596174757043       -0.36667157556656
C            1.39287426463222       -0.49274775707504       -0.18838305124062
H            0.82576583188923       -3.90876624297058       -0.17334500249780
H           -0.52754586496045       -3.47281394428867       -2.13004579720344
H           -2.31485822975603       -1.99009271845703       -2.01808037927711
H           -4.14507540621224       -2.13644315927079       -0.75174896157702
H           -5.15338872198045       -0.98742811406197        0.06270830727011
H           -4.06747676355912        1.03964217848879        1.34166141732777
H           -0.59936004979367        2.58584830033283        1.49323781058920
H           -2.18722767804759        2.76009977587900        2.10646277026854
H            3.17402154123278        3.24670871239598       -0.85949463270893
H            4.23981467935214        1.87899239292526       -0.96604950082092
