28
 energy: -50.662227706407 gnorm: 0.000425032935 xtb: 6.6.1 (8d0f1dd)
N            4.52311512525113       -1.53360567301076       -0.46282840891971
C            3.54788390372557       -0.93808932313852       -0.31979631330163
C            2.40957969287283       -0.15053034851416       -0.18810923838668
C            2.38394340495672        1.26512465865518       -0.43959288563570
N            3.45058972502706        1.96039781090911       -0.86027360413265
C            1.10535893321688        1.75755677622974       -0.18371095973775
C            0.25957020419884        0.68840757076987        0.13412670927751
C           -1.12233335974261        0.70436802969783        0.19226919001524
C           -1.93949719315035        1.89841935727912        0.30767612692364
N           -1.49596582710559        3.14717602102767        0.62576862295266
N           -3.22195976708697        1.65275465894161        0.11115793825517
C           -3.31344490627238        0.33813417360343       -0.19569246334450
C           -2.10155952303162       -0.32449385520127       -0.11580878167307
C           -1.91318403680133       -1.71430902420872       -0.43916037350559
N           -2.65602408415861       -2.21726318166790       -1.44355357374569
N           -1.20953204959098       -2.55890521383418        0.26109276312047
C           -0.19102620254562       -2.35933367293903        1.06378903287939
N            0.86764826424538       -1.64897002234316        0.86055925542055
C            1.13777633487126       -0.53484560118913        0.23008009537809
H            4.30895065212637        1.47861125544890       -1.06688535122470
H            3.38634644453985        2.94826351854736       -1.02927363243716
H            0.79977478139598        2.76956207596403       -0.36614062340535
H           -2.23436956791048        3.78271358701959        0.88790736463841
H           -0.65371134515954        3.20442806572646        1.17552690694665
H           -4.27986310474122       -0.08775742579264       -0.40184311301829
H           -3.36198953367756       -1.64853966361283       -1.87622834011521
H           -2.64864512693615       -3.21037697546901       -1.60338779923063
H           -0.13442685972418       -3.03808680819728        1.91231463530215
