29
 energy: -51.154892462806 gnorm: 0.000563924025 xtb: 6.6.1 (8d0f1dd)
N            4.59731759927706       -1.65980372374217        0.68222796966747
C            3.51414282953811       -1.38772970379935        0.40781161984790
C            2.18594931593931       -1.04404592057836        0.06617758740059
C            1.52823960349562       -2.09223395151165       -0.60687953914394
C            0.21163200521801       -2.42389209634134       -0.78747887916428
C           -0.98975463705512       -1.85106312273057       -0.34946485397847
N           -2.06281611804099       -2.63662642572879       -0.33833093365250
C           -3.11683265082187       -1.90459232373594        0.04869984595999
C           -2.79707139267078       -0.56203320752306        0.20091080767463
C           -3.68942789825000        0.42532858781645        0.61923610897515
N           -4.45650258885649        1.20513922742461        0.97430650149042
C           -1.38395248411159       -0.45842309475912       -0.02646152602898
C           -0.70034782924143        0.72327859402105       -0.19185476324627
C           -1.38186360730229        1.95636096935192       -0.46377753478523
C           -0.46804416901001        2.95232099541090       -0.60127784063809
C            0.83406297232569        2.42096305898147       -0.34232385091415
N            1.96889747722131        3.20076941519708       -0.35657521556428
C            0.72894618725355        1.05062947473777       -0.10377575449906
C            1.82389476414773        0.28089939813279        0.39286034324856
N            2.71254826614486        0.97405477605766        1.14177415051649
H            2.22272025548381       -2.85759418366873       -0.94211566577566
H            0.03831420232982       -3.39043964797193       -1.24584434934158
H           -4.07589612203418       -2.36550848411961        0.20356568488843
H           -2.44052043008379        2.04233494670554       -0.60799815267552
H           -0.66308921882710        3.97635471573392       -0.86203840157203
H            2.83502287679306        2.73970681466376       -0.59240458306686
H            1.85276063944130        4.09739050082316       -0.80394905437893
H            3.53029912992261        0.51702119519579        1.51166216318735
H            2.48885118437476        1.90464268776433        1.44867115936994
