27
 energy: -46.915602513485 gnorm: 0.000744083351 xtb: 6.6.1 (8d0f1dd)
N            4.42759790364468        0.42973364224226       -0.13879607269903
C            3.43254860751321       -0.13942523200665       -0.03857583369178
C            2.26476367415745       -0.88997662907203        0.09474325059309
C            2.26286236470620       -2.24979531590998        0.50947774909246
C            0.97689530279703       -2.73213865890465        0.57139714425100
C            0.10103149955967       -1.70737733903070        0.15573902425429
N           -1.12112835928186       -1.91800264124575       -0.19326996208666
C           -2.25488151894402       -1.30728681349376       -0.39887554988808
N           -3.12911541462512       -1.96678677336903       -1.19724881230927
C           -2.72988403866301       -0.19589114117166        0.33976741243112
C           -2.04332210642465        0.95563572811417        0.66729757231058
N           -2.65984172315151        1.84023224365612        1.48852820428537
C           -0.81958668082411        1.43414779372205        0.08018026380203
C           -0.63580420353398        2.77492803592207       -0.22057679388077
N            0.58726432019545        3.03141422811641       -0.74446277228719
C            1.26268849996425        1.91206382671045       -0.69857155638616
C            0.46288788894454        0.81745969067274       -0.23321065699458
C            0.93539327756295       -0.47050526009480       -0.05563613990674
H            3.15715744237627       -2.80199381570840        0.74072396894234
H            0.67364777617507       -3.72807306429353        0.82806685923844
H           -4.02554514885292       -1.57113120417600       -1.41105800133227
H           -2.82095652336429       -2.78682586340631       -1.68866069578509
H           -3.77009541265865       -0.24523891872768        0.63841918827567
H           -3.59466678018353        1.66785125943460        1.81467072672582
H           -2.25236089649901        2.74490749083101        1.64115333773171
H           -1.35604845462684        3.57199834213667       -0.15676971804068
H            2.27145436703220        1.84792959505315       -1.05790848084505
