27
 energy: -46.927364463874 gnorm: 0.000574700619 xtb: 6.6.1 (8d0f1dd)
N           -4.49887273520053        0.97654033553937        0.74474142425719
C           -3.45666320060131        0.54824656577424        0.50707987137180
C           -2.22756464925270       -0.04989109747291        0.25239341290346
C           -2.00443105302459       -1.46063282740932        0.27857818530441
N           -2.94746665572752       -2.36135155649101        0.58697877729808
C           -0.67180828124828       -1.72816741675679       -0.05760003008828
C            0.02000111145165       -0.52493596700399       -0.20607923990678
C            1.40036979106628       -0.35669908869445       -0.20494069167415
C            2.32463605958328       -1.44317587220713       -0.29875172607564
N            2.04806221330212       -2.69406794813578       -0.79469504850095
C            3.55605729824865       -1.04443625116910        0.22156887965956
C            3.44894138755644        0.26774959503716        0.65939489510177
C            2.17746191587368        0.77228308547433        0.34917975816859
C            1.85057894242140        2.10682357839195        0.58655968171616
N            1.03854563589282        2.88305304352356       -0.07481442608957
C            0.01088407884515        2.61168099734268       -0.83095474647932
N           -0.95491581840339        1.76965091765414       -0.61181608827382
C           -1.02995531395297        0.56627797678627       -0.12982811192915
H           -3.85993780409936       -2.04886212591064        0.87230366634944
H           -2.73970050373804       -3.34414832439474        0.58819752723437
H           -0.23712735523035       -2.70811769076086       -0.02686758378179
H            1.33422099816143       -2.73949497515888       -1.50535423405626
H            2.86124007271425       -3.25916386921884       -0.98728878437489
H            4.43582693310330       -1.66042663444383        0.27154746268817
H            4.23766156385245        0.84610753620373        1.10497503129139
H            2.49719969561277        2.64289835866470        1.27730813773842
H           -0.17754498480707        3.32529428243811       -1.63092931485174
