30
 energy: -56.469902252819 gnorm: 0.000958538592 xtb: 6.6.1 (8d0f1dd)
N            5.66963009435442       -1.97387899950020       -0.80413521701253
C            4.62173573181905       -1.57983282400363       -0.55268940562916
C            3.34957738579063       -1.08516214175017       -0.23325802779288
C            2.18464753552179       -1.80958074057048       -0.12252572129023
C            1.10549686347655       -0.91285767964371        0.12529668426709
C           -0.17796119806052       -1.36973089874368        0.34517677927507
C           -0.46144093134074       -2.70773820595297        0.73572597378259
C           -1.81327930187213       -2.87721377337100        0.82795042438878
C           -2.46025805873670       -1.67424878644070        0.40071020436086
C           -3.85153463958360       -1.51806932183585        0.39311703185992
N           -4.99518795935148       -1.43677942062493        0.45725918819996
C           -1.49160595703614       -0.71754004305182        0.11544998931920
C           -1.78973345688185        0.51255725865642       -0.52102329469289
C           -2.99305396967935        0.51055751188505       -1.28142462572010
N           -3.90422712309196        0.53930504365936       -1.97548889013977
C           -1.17655943206640        1.75119301115780       -0.50579858656855
C           -0.05987466953535        2.26274318675715        0.17361714086972
C           -0.13380101297104        3.66917252424047        0.33914632757814
N           -0.18294886464962        4.80649058177223        0.48462294183456
C            1.13999387511140        1.68540598056280        0.63262260505894
N            1.94596706209136        2.45848541604151        1.38676468901840
C            1.69979352384218        0.43007717824466        0.22683323807229
C            3.05725011322683        0.28566606401740        0.04180737302562
H            2.08508528120275       -2.86410406313427       -0.28957427697201
H            0.28054894583076       -3.43274748654085        1.00777801115844
H           -2.33449391380676       -3.75494376949133        1.16321144944861
H           -1.75403274964255        2.52367138666915       -1.00794122587177
H            2.84883614711427        2.12148624474783        1.67134348763219
H            1.68994438454650        3.40901906537224        1.60262624714936
H            3.79643296557809        1.06620596077160        0.02808992448998
