31
 energy: -53.832565897108 gnorm: 0.000531484491 xtb: 6.6.1 (8d0f1dd)
N            3.39381673367992        2.66542411936373       -0.37663749021962
C            2.82186464756559        1.66718320221960       -0.28206953107865
C            2.26607776250497        0.40324637128385       -0.14163389967247
C            3.06895024983996       -0.70598973191193        0.24080213063251
N            4.39458526281287       -0.64201171829756        0.44921897775986
C            2.26046842650730       -1.84838671054931        0.34819840748681
C            0.95698721002013       -1.50343338337607        0.03364253299728
N            0.03922736073531       -2.39730805840409       -0.27136276133809
C           -1.26176943123198       -2.34843487048721       -0.33763630218969
N           -1.85416169588729       -3.23063883488609       -1.18671742759078
N           -2.08690599606566       -1.70565164091390        0.49029830908936
C           -2.17618467013806       -0.44077196661634        0.76260727039450
N           -3.09492233342364       -0.11550419302684        1.71764798302570
C           -1.56892048427593        0.65241783857122        0.05657508386774
C           -2.20192403222490        1.87321663564659       -0.16084239312050
N           -3.50399135130604        2.21388941542926        0.14024256676619
C           -1.26963813315937        2.77840734812188       -0.75015481962366
C           -0.05974317697229        2.16167392456042       -0.82844764659218
C           -0.17890693917837        0.81069381827273       -0.35852949054820
C            0.91578903649579       -0.01844039593602       -0.19816790150427
H            4.89879337012345       -1.44122606068442        0.78742274304154
H            4.87072276661372        0.23823380591866        0.34786935606447
H            2.60361488865636       -2.83925154061818        0.57335501188679
H           -2.82713103367393       -3.43929432526535       -1.04643486061498
H           -1.26888840691019       -3.93352607454761       -1.60395030814567
H           -3.03985153718325        0.79760111325286        2.13533346615135
H           -3.43405433974754       -0.87305419299233        2.28726555360532
H           -4.15195733241669        1.44357682145654        0.21317386170423
H           -3.86003290010228        2.99982342943060       -0.38261049812229
H           -1.50728211142939        3.77934910513589       -1.06179687536350
H            0.84318561157177        2.58250582034999       -1.22499341714789
