31
 energy: -53.821222083028 gnorm: 0.000617578216 xtb: 6.6.1 (8d0f1dd)
N            4.23668503567766        2.60191477617316        0.10283597200474
C            3.32279207763116        1.90788294617199       -0.00084196741411
C            2.23159174470860        1.05208821378114       -0.10323185924279
C            2.29358435874336       -0.36164586708063       -0.00791218471433
N            3.49926399826803       -1.02678214629201        0.15112000679734
C            1.00197260574423       -0.90397617207382       -0.10549967518992
C            0.78813506943619       -2.28239581003326       -0.32721696183643
N            1.88435352814204       -2.97552173261837       -0.75884632186504
C           -0.32375504146148       -3.11791571615750       -0.08845437542014
C           -1.60058341811326       -2.96144192050845        0.40217578818613
C           -2.45231917385963       -1.89102269506650        0.63192466103516
C           -2.38025901933339       -0.54199136409285        0.33569270124967
N           -3.49925492179288        0.18391451968323        0.45664073646570
C           -3.16021223034042        1.42389056264115        0.06659552975765
N           -4.04969079306899        2.42830894956080        0.06551199086886
N           -1.88190543841986        1.59673723358205       -0.28044274440550
C           -1.29439206940092        0.38167154049175       -0.11349593839990
C            0.07366866866102        0.24946302092598       -0.19686469561778
C            0.89399395056369        1.42704946019096       -0.28791418733882
N            0.43998572673015        2.67250914748568       -0.49149515259534
H            3.46092318742542       -1.85653463962873        0.72606260924026
H            4.25593586882097       -0.40644112238385        0.40814083200119
H            1.76876039093098       -3.93536380339381       -1.03507508465156
H            2.65825158506978       -2.46679695532214       -1.15241805196600
H           -0.07651692633117       -4.16015451292825       -0.27400460330974
H           -2.07858392344904       -3.91465090557282        0.60968318491644
H           -3.42856919170103       -2.15845299137285        1.01831064193967
H           -3.80596789376701        3.29927760478485       -0.36907282371503
H           -5.01399972815012        2.19848269373614        0.22402527074667
H            1.04863495267291        3.45199902118383       -0.30694106506502
H           -0.57971085223344        2.74535633503201       -0.45381613066288
