31
 energy: -60.198367998037 gnorm: 0.000893785305 xtb: 6.6.1 (8d0f1dd)
N            4.97693672874444        0.49628650694008        1.47596667998377
C            3.93299786601723        0.53558935294588        0.99984712781942
C            2.63542463778725        0.58398169971569        0.42964364089529
C            2.05276452184068        1.82942071263835        0.50010692186362
C            0.86685891610083        2.36287289807323       -0.00644713586532
C            0.71367462495715        3.73557717668981       -0.22235490406485
N           -0.49726113271265        4.04830282807185       -0.71430211387383
C           -1.20842496492478        2.94132252145046       -0.72121936664058
C           -0.44971187868610        1.80374302450418       -0.30919214576542
C           -0.99029240661143        0.55160378222792       -0.07983343791244
C           -2.37336249541638        0.31881688495500        0.09637771570498
C           -3.42130388287776        1.23744782280708        0.20023201563431
N           -4.35623285580108        1.89653336509100        0.31512702778173
C           -2.59171033874122       -1.06081140671186        0.29136273557228
N           -3.75020686384871       -1.65603248589321        0.56105047481968
C           -1.32890847042602       -1.72575113431170        0.16321198631784
C           -1.21206600243491       -3.10460036151351        0.36310189005161
N           -1.22650196003851       -4.22853954357680        0.60251352743449
C           -0.32798856464910       -0.77871015647860       -0.05632718090408
C            0.97612101335173       -1.17853692895932       -0.43183240745619
C            0.98989339710808       -2.45489610248258       -1.05192171338425
N            1.03783948606956       -3.44030128697869       -1.64029614506675
C            2.25879253357298       -0.62708093385000       -0.25290480574423
N            3.30328900173497       -1.35952607087428       -0.69283550161415
H            2.69322034713652        2.57998077726586        0.95687173550863
H            1.46035297139207        4.49620732172265       -0.08572575554443
H           -2.22324556494782        2.94124644922197       -1.07056150167464
H           -4.59206497021396       -1.10947990221425        0.64720400174678
H           -3.78593854397931       -2.65297563089496        0.70196401771449
H            4.24660611874169       -1.05943902769596       -0.50757412484928
H            3.15501720865061       -2.27010947468247       -1.09862545768747
