30
 energy: -54.901879678259 gnorm: 0.000829351789 xtb: 6.6.1 (8d0f1dd)
N           -3.08423471033488        2.76656989663450       -0.04855444085980
C           -2.13004746928566        2.12896648338297        0.03754581921960
C           -0.90304579987981        1.44317782873223        0.10922251562145
C            0.23710332210413        2.29551424740483        0.01965607800707
N            0.06846699836833        3.49657019720365       -0.58383176778139
N            1.40035375639208        2.13660882268099        0.60539223517834
C            2.28448842537102        1.21545708123600        0.78851702216662
C            2.44780266310374       -0.02037511274758        0.16457535808615
C            3.69133809120411       -0.67565360314336        0.06037252710338
N            4.90969798683463       -0.16589838629113        0.38387380797009
C            3.49332755270880       -1.93436163345235       -0.56371082357408
C            2.15608576571392       -2.10533601015217       -0.78485141856774
C            1.44094549783284       -0.94543766300115       -0.35584181598992
C            0.06503174240722       -0.98506014806838       -0.24029565021191
N           -0.54672855923780       -2.17777154448178       -0.44675405899766
C           -1.83120208438325       -2.03011494902739       -0.16277568748633
N           -2.70846198663264       -3.03669978333078       -0.21779056846044
C           -2.15290002779982       -0.67701346504076        0.20657140469475
C           -3.43798850961352       -0.29803171668804        0.57676093147104
N           -4.53014281317926       -0.12519618179986        0.89854707691430
C           -0.95902658689067        0.04146974837221        0.12373415219321
H            0.80211692159411        4.17944312202498       -0.50458863661616
H           -0.85513024733444        3.79930000753261       -0.84502200211927
H            3.07554400624265        1.53225307379271        1.46946544541060
H            5.68574314235011       -0.80526638878714        0.41213287056512
H            4.95473829975823        0.62056458761262        1.00963104745052
H            4.27806877951039       -2.63305857040910       -0.79010804523370
H            1.67094452718209       -2.96621172672034       -1.20029778071539
H           -3.66724573595366       -2.88278720421603        0.04143193893057
H           -2.39135283545161       -3.95191655675285       -0.48292755837001
