28
 energy: -46.653476511200 gnorm: 0.000879643186 xtb: 6.6.1 (8d0f1dd)
N            5.01958533406678        1.10976348575349        0.02601900225137
C            3.97283873935099        0.63141331395596        0.01146147334250
C            2.69071910185843        0.08454990495079       -0.00208013113389
C            2.35552888761127       -1.28462645184578        0.00214858372029
C            0.97864557598790       -1.45191234781154       -0.00791621281556
C            0.46948154205231       -2.75272136061736       -0.01323360500556
C           -0.77055677687084       -3.35012499282397       -0.01687264780634
C           -2.08665362407643       -2.87653709375343       -0.00452829025437
C           -2.67871723104897       -1.63895029530632        0.01416788103632
C           -2.23837078602083       -0.30534194625523        0.01751683248420
C           -3.15717663459191        0.72586060360267        0.03399635794022
C           -2.42769768816243        1.94186020835015        0.01834211580554
N           -2.94673309835625        3.18040480980096        0.04985363861530
N           -1.11731878007754        1.73093252270270       -0.00647884840808
C           -0.90829767501278        0.37900055979984       -0.00432005977512
C            0.38223659042735       -0.08585638916322       -0.01629477307740
C            1.50165287504423        0.82873195137907       -0.01884890225463
N            1.40814931008787        2.16427342096862       -0.04659001185247
H            3.07730957810181       -2.08144304718133        0.01150055798704
H            1.27969723182641       -3.47752774101337       -0.01477936201862
H           -0.72049898987583       -4.43367175171072       -0.02639632863812
H           -2.81130267618164       -3.68549009876556       -0.00685065849331
H           -3.76421591589564       -1.68347366835725        0.02633102810611
H           -4.22629976473178        0.63935050474854        0.05283643362405
H           -3.93767938621908        3.31584033586752       -0.03303041496115
H           -2.33491065084237        3.97162573806368       -0.04398550455966
H            0.45535668995738        2.52415122346140       -0.01238871162290
H            2.23770062009178        2.72791037639961        0.01519931236431
