27
 energy: -46.927512379694 gnorm: 0.000902426865 xtb: 6.6.1 (8d0f1dd)
N           -2.79333657737571       -2.46837628224762        0.21932861094973
C           -2.21332919229659       -1.47922423665755        0.08051030497684
C           -1.63798588165868       -0.22759481471991       -0.06748534103221
C           -2.44745998369799        0.95543352948383        0.06911548389164
N           -3.77807340783497        0.95930586411522        0.21811814763737
N           -1.72789267672933        2.06098111573651        0.01186380913997
C           -0.42860935702399        1.69970002951068       -0.13215450913208
C            0.45632920211083        2.70206517989818       -0.43156910871181
C            1.85123135416826        2.65167046919671       -0.64630855478721
N            2.73886476404637        1.93188430979075       -0.07140434143188
C            2.79648033364076        0.82872419440063        0.63935700162252
C            2.13466720351276       -0.35444191809138        0.40735314143157
C            2.72599190208007       -1.61280028803496        0.66764662288971
C            1.96593990263507       -2.59894577036420        0.08707611983206
C            0.80335428438297       -2.01945671473368       -0.46996457591777
N           -0.06598029225848       -2.71411131076187       -1.24878494473555
C            0.82615396686329       -0.62071137774920       -0.23213244338735
C           -0.30445166048515        0.20175091950709       -0.16254653554547
H           -4.24038062524330        1.83316562346110        0.39659894750479
H           -4.27262686970276        0.09374890135077        0.34755103153362
H           -0.01388510532550        3.66292551004216       -0.59868532155968
H            2.26146960091445        3.40921555965593       -1.31208834968242
H            3.65242268007363        0.79973659388236        1.30972782652352
H            3.67076986338543       -1.74607395476922        1.16155627039285
H            2.19119518685468       -3.64955604745887        0.06206978699101
H           -0.09549930574936       -3.71312815208841       -1.12673204253827
H           -0.94037048938703       -2.28861552225521       -1.50581813055531
