24
 energy: -38.962561179047 gnorm: 0.000690841538 xtb: 6.6.1 (8d0f1dd)
N            4.00880213535931        1.03156544472991       -0.22338661884959
C            2.75679932645013        0.56295852605273       -0.11126549030195
C            1.57796136253926        1.33464139966914        0.04118491084961
C            0.51614758191576        0.45381371254299        0.09478348425074
C           -0.83398643260549        0.85263809859231        0.18526612271950
C           -1.21475507342462        2.18558361870698        0.36363312918954
C           -2.58177358526078        2.32379016529942        0.11269353633575
C           -3.08572617607847        1.09790262278351       -0.28390339517697
C           -2.05675230163682        0.13952304210564       -0.20978776903539
C           -2.26857422440934       -1.20490135899006       -0.48478539560580
N           -1.71191332009029       -2.24494113234372        0.05978083012861
C           -0.58628539348746       -2.62490167800474        0.55584416621726
C            0.71471813148896       -2.16469044926164        0.30648027070880
C            1.17403001209912       -0.89755547555628        0.02797212833952
N            2.50504771177561       -0.74952767192727       -0.11622962356554
H            4.75235396999433        0.37963494049828       -0.39919952858459
H            4.18418468615762        2.01773167356966       -0.28331120881224
H            1.54530950527329        2.40548232203268        0.05714132398697
H           -0.56138591688408        2.98673374313529        0.65366459576787
H           -3.13907156733220        3.24032892551628        0.18905529635912
H           -4.10486074022501        0.88008392924406       -0.54613003139394
H           -3.15118260991743       -1.45270704922562       -1.07333031510331
H           -0.66729994782056       -3.52950934271837        1.15711289275607
H            1.50700532351905       -2.89173160165126        0.43609069231986
