28
 energy: -49.863531310009 gnorm: 0.000402628595 xtb: 6.6.1 (8d0f1dd)
N           -4.43890653918874       -0.58968298948961       -0.95676898642792
C           -3.21119919916081       -0.26862532970431       -0.51228333418173
C           -2.15720811048165       -1.14045017761654       -0.22487267579088
C           -1.06682736859522       -0.33609266705636        0.11877242944303
C            0.26923435588516       -0.67950241521233        0.22207663146223
C            0.75103024419839       -2.03619027808700        0.34824317236191
N           -0.00822358124798       -3.13154523566229        0.62732759133981
N            2.06220915781956       -2.13050101841968        0.20074792982709
C            2.50297488337822       -0.87810778795726       -0.08310963406574
N            3.83762752447130       -0.68406389840923       -0.36310229718487
C            1.48417890109029        0.07838053201907       -0.04134117974454
C            1.65102543641217        1.45769484439534       -0.38122380139186
N            2.62973390738489        1.76524135601730       -1.26821315451363
N            1.10179899719441        2.46940959010260        0.23437272056102
C            0.03405137466385        2.53079593429383        0.99523998461044
N           -1.15804659595238        2.09603874047238        0.76589064173372
C           -1.66375851810015        1.05861918051979        0.15132597012983
N           -2.90924269438344        1.04119754929536       -0.28119915036564
H           -5.04325798471773        0.16045469929588       -1.24193976169005
H           -4.64908684277367       -1.53077246689460       -1.23546384719117
H           -2.16548240087362       -2.19623520162485       -0.40763346121758
H           -0.86640474085381       -2.96772854244685        1.12861838961754
H            0.52373570739030       -3.93973477606291        0.91067472120272
H            4.22018138030107        0.19783411661766       -0.05351626418353
H            4.39618876787732       -1.48461273148588       -0.10369568486733
H            3.02601667129563        1.03536313094325       -1.83357360135811
H            2.70902154348281        2.72202373746627       -1.56701249264941
H            0.11614867608368        3.21646153189024        1.83850517683456
