35
 energy: -61.503211441223 gnorm: 0.000610662587 xtb: 6.6.1 (8d0f1dd)
N            4.22043570097914        2.92286396608894       -0.64992893417028
C            3.34800508640651        2.19641738364793       -0.45270010230853
C            2.31882727473581        1.29322738053123       -0.21488068606482
C            2.49811050978560       -0.03259243795792        0.29967822314467
N            3.70601328236671       -0.51206310124338        0.73516801383931
C            1.27131867857545       -0.68195799865651        0.29292971402475
C            1.05496627390305       -1.98581274300927        0.86341119822355
N            1.79583158648467       -2.29558807549897        1.96614996657932
N            0.36291503722853       -2.95330477527363        0.36559611022023
C           -0.49961757356908       -3.05490503757237       -0.64535386427914
N           -0.30977694674014       -4.16363202223276       -1.42040376810007
C           -1.64160661479726       -2.29319192050469       -0.85610656332028
C           -1.98632234920263       -1.02205290290078       -0.38303470143519
C           -3.30254786067235       -0.57640633057679       -0.39369477317930
C           -3.35322435563146        0.76928166641537       -0.00770078287977
N           -4.46250812565520        1.52670535125499        0.14651249013752
C           -2.02687432050076        1.23296715347239        0.16315546716706
C           -1.75904569251858        2.49197273867742        0.67953390684222
N           -1.61685894371734        3.55371398017504        1.11185697346586
C           -1.12878793866798        0.15071213077820       -0.06291763069221
C            0.25155879210194        0.26880098884729       -0.11521756871533
C            0.96005062683793        1.49507910625507       -0.43961427739765
N            0.45771159508664        2.56335265136906       -1.10581016115467
H            4.51420634775349       -0.00280132207470        0.41065321526225
H            3.81064989229106       -1.51418067236074        0.76283003404720
H            1.56958625679017       -3.15463397679594        2.43962831126557
H            2.16630147798706       -1.54002111553138        2.51663715577097
H           -1.06529844923331       -4.49601883771645       -1.99328099524757
H            0.37890378579813       -4.83076292103765       -1.11828804102827
H           -2.41039936791227       -2.77423653795643       -1.45058960060643
H           -4.15909114901232       -1.18390551564572       -0.62112825130639
H           -5.36071266711506        1.07736731626539        0.18215219641211
H           -4.37012731762536        2.42892549373705        0.58323272593128
H            1.05884416189978        3.36728687616214       -1.18681275980176
H           -0.52986957404217        2.74762472856963       -1.06730153544502
