26
 energy: -47.997100738035 gnorm: 0.000714087652 xtb: 6.6.1 (8d0f1dd)
N           -4.49742988610366       -0.06406595893162        0.71645219343245
C           -3.42807176387755       -0.36952777398951        0.43264923588904
C           -2.11114022888272       -0.76102382253746        0.09613370416861
C           -1.89028585238677       -2.13764787176368        0.12717695010801
N           -1.00069307751333       -2.83246092775445       -0.51623540874553
C            0.23926150391449       -2.80949589157687       -0.82675292020157
C            1.24872221740796       -2.04978794447342       -0.19876339473337
C            2.55611535866550       -2.45838705531955        0.01702476662627
N            3.30440892168628       -1.49235428485673        0.59636333148487
C            2.55145170993964       -0.42186577489250        0.67960931434367
C            1.21031662720772       -0.65075686595088        0.22418751622746
C            0.27955933493385        0.35483350491819        0.00956664962059
C            0.61669993981318        1.72418228326360       -0.03831332706235
C            1.86558326160742        2.34449470847682        0.01578408536309
N            2.82662530461867        2.97740716914216        0.03167129280615
C           -0.55472888950342        2.48544288019770       -0.28277115369139
N           -0.59598570018571        3.80855255093470       -0.44383067235665
C           -1.65514464627297        1.59746741941876       -0.33406026162661
C           -1.21255773812047        0.30352488655978       -0.16391081218173
H           -2.65883641010844       -2.74607811880369        0.59804554370565
H            0.54394113514144       -3.54863264138826       -1.56324264415997
H            2.97413827620982       -3.42866890015133       -0.17809234171640
H            2.93179100783972        0.48553182242714        1.10810585649996
H            0.25258456334029        4.34822512468296       -0.38639597298504
H           -1.46585954386159        4.27770283225507       -0.62792599191316
H           -2.67759844500944        1.89606949401245       -0.47068824650187
