29
 energy: -51.152275922168 gnorm: 0.000915088486 xtb: 6.6.1 (8d0f1dd)
N           -4.30562648192470        2.33269114624235       -0.84371460403358
C           -3.61294470012921        1.43438064883739       -0.65472572600271
C           -2.78098908289570        0.33618099823024       -0.44202522242371
C           -3.11379288693886       -1.02019003593832       -0.68039704208523
C           -2.06913048590041       -1.84261866566580       -0.32168807685081
C           -0.96218788149954       -1.04308903738498        0.04687690200241
C            0.35137480586176       -1.43368098789277        0.15341368689381
C            0.74799341644762       -2.82144183103917        0.28445466063473
N           -0.08547200825989       -3.84684546140438        0.63662493828121
C            2.09801425409664       -2.92440867835814        0.02584138802068
C            2.58574094141233       -1.65148662895877       -0.29768874785090
C            1.58493057251820       -0.69025626955754       -0.16689203389412
C            1.87336897926489        0.68202897573281       -0.40713091266226
N            2.89853709631411        0.94302297523712       -1.24664189199248
C            1.37135369173763        1.79298521748375        0.32112251648343
C            2.21013185320530        2.92002513390542        0.39243733292107
N            2.91350880083842        3.82833306722884        0.44977140246685
C            0.16090825573829        1.90046756675807        1.02762867660466
N           -0.97221350328932        1.37625745894372        0.72159000793158
C           -1.47594509392090        0.37175579527020        0.07419729897428
H           -4.05628570987766       -1.34436981857227       -1.08553793318020
H           -2.05521879671688       -2.90581013265752       -0.45973293229222
H            0.37256106155012       -4.70184088110377        0.91003475320897
H           -0.90120724652540       -3.60763956951193        1.17692266726295
H            2.68611993427632       -3.82127305825717        0.08345499403336
H            3.62207355637682       -1.45643920253219       -0.50973041861530
H            3.39447025137072        0.19137728519427       -1.69019512740790
H            3.27806820565885        1.87455194499495       -1.29897646750901
H            0.10831290510672        2.65421181397781        1.80938219328136
