27
 energy: -46.126170668850 gnorm: 0.000897126057 xtb: 6.6.1 (8d0f1dd)
N            0.06162511487251        3.68507647485943       -0.67291822562500
C           -0.02886955881614        2.49399982122715       -0.02797580908583
C           -1.24220883255209        2.24000136892679        0.67578475731506
C           -1.91545163369386        1.05484037632315        0.78945318267611
C           -1.69897963899267       -0.22918969516515        0.27511015389225
C           -2.75166519996061       -1.16959190946603        0.19064778631034
N           -4.05914975187376       -1.01768976472713        0.57086216538677
N           -2.35373324959155       -2.35348325425016       -0.32300298322524
C           -1.05094246029288       -2.24971455101827       -0.53254452445127
C           -0.53479239806200       -0.97174122349854       -0.21717150528266
C            0.82914145697023       -0.70515674337150       -0.19515677561192
C            1.87187686681317       -1.61511297184394       -0.25275077104490
C            3.03291920409921       -0.91655242083071        0.13586255899328
N            4.26233169078513       -1.42645970418078        0.28352472958880
N            2.81317851097497        0.39551877504294        0.37756928067500
C            1.52330250660414        0.60460860850293        0.12246287083358
N            1.07254085753508        1.80632347439049       -0.00979524415812
H            0.90844454708828        3.90331703050282       -1.16771184719787
H           -0.73600753145824        4.28750541399099       -0.75773836643568
H           -1.74857006578401        3.12682929865778        1.03640374179649
H           -2.87448273238051        1.14707451094605        1.29212635317531
H           -4.45206411573685       -0.09178466787417        0.53918777357507
H           -4.66049594895524       -1.74985673423155        0.22751172994987
H           -0.50100866333275       -3.08034917124856       -0.93456543163798
H            1.82048886046009       -2.66542161640162       -0.45846966269608
H            4.44788305699660       -2.39310762866897        0.08857350568241
H            4.99477981818374       -0.82605565709325        0.61795202840244
