29
 energy: -50.371129671520 gnorm: 0.000532837378 xtb: 6.6.1 (8d0f1dd)
N           -3.97572042185529        0.82276498165144       -0.06032265905724
C           -2.97772158581690        0.23882118266917       -0.07799882739471
C           -1.85491841659228       -0.57111850479499       -0.10361229876533
C           -1.97624609268807       -1.96566688893989        0.10387134826079
N           -3.13920836519649       -2.61671460103503        0.26497711840025
C           -0.69270279818537       -2.55381201040707        0.09292907144411
C            0.24559846119201       -1.56217826283964       -0.08842305176628
N            1.49209802887419       -1.79492392924148       -0.45969720005972
C            2.66482338921975       -1.36519534806385       -0.17809950173227
N            3.69255800079623       -1.85324954577266       -0.91875226446938
C            3.03701994736265       -0.50595645385263        0.93178793445968
C            2.44883515863627        0.66898256167249        1.22713856938386
C            1.38556310687032        1.37508939207501        0.58616663326400
C            1.33808745760999        2.75666432107137        0.63811173543163
N            0.28133530426414        3.29482314718004       -0.01555958081361
C           -0.46440060882255        2.28320397820997       -0.40799666187590
N           -1.51891217180627        2.47901015030020       -1.22568232363992
C            0.13617441505056        0.98568172493768       -0.05852276668950
C           -0.46653151161199       -0.24536639622352       -0.13602521585957
H           -3.14686047994820       -3.59129843366518        0.50595016811842
H           -4.00136657782992       -2.09877308262705        0.28630518480216
H           -0.48941292896755       -3.60378938621285        0.17742916794444
H            3.47371431477218       -2.36655924664926       -1.75546270402880
H            4.60761565022795       -1.45060952729004       -0.82729090376676
H            3.93127022451305       -0.79763964878343        1.46519421697697
H            2.92996041454749        1.25656339063810        2.00312576957609
H            2.05734510758593        3.40468878958905        1.10714451315465
H           -1.79680578593256        3.44223923424945       -1.32771508483981
H           -2.25273020177022        1.79092948645497       -1.27469910635873
