27
 energy: -47.721878850892 gnorm: 0.000841332858 xtb: 6.6.1 (8d0f1dd)
N            4.14033287923936       -1.35197326811537       -1.02421010476677
C            3.05309527414482       -1.38733000274515       -0.65173321066129
C            1.72148792033503       -1.51893313445985       -0.25313788763622
C            1.09781789964649       -2.73797065569740        0.02155565758539
C           -0.23943507145832       -2.51664092731365        0.33213565465366
C           -0.54585969134484       -1.15851442530746        0.21152111198145
C           -1.85828104560282       -0.67457240064826        0.23736627860378
C           -2.96762366955737       -1.48611050786101        0.55728606335866
C           -4.13303962900593       -0.87365106365859        0.12383362199098
C           -3.80509744863807        0.32250436699240       -0.51160224334236
C           -2.42210185447081        0.52564976971126       -0.40443161717907
C           -1.80595292797919        1.70582351746107       -0.79746855843801
N           -0.77579184440181        2.27991205122748       -0.25404729884958
C            0.28050998367622        1.97025461925192        0.42304701717735
N            0.71662109081031        2.85867343313015        1.33812188684983
C            1.14043152638584        0.82939319479417        0.14386364427767
C            2.50908641776987        1.17177739970281        0.21033297543821
N            3.57818988823708        1.57340139541650        0.33574110596380
C            0.76560672589939       -0.47838123764298       -0.06634166494834
H            1.58309193007803       -3.69663055264688       -0.02171278386914
H           -0.94795195302856       -3.29530671191761        0.53529097167879
H           -2.91859923643442       -2.43644161096930        1.05285444534700
H           -5.12664922252355       -1.26655299505928        0.24090690149559
H           -4.49507988935891        1.01950801617707       -0.94991815366379
H           -2.33623801714635        2.34127323683585       -1.50185745052065
H            1.65233958906471        2.79218285254135        1.70357129616896
H            0.21225446766141        3.72202401930031        1.45314183240361
