30
 energy: -49.286019770889 gnorm: 0.000835443087 xtb: 6.6.1 (8d0f1dd)
N           -2.30279644238780       -3.39918517460638        0.44214389469725
C           -1.63674242182304       -2.22165195444256        0.17783860474598
C           -0.25587208552414       -2.31923484492253        0.28183861962024
C            0.82954086660656       -1.47462681413330        0.05437166240810
C            2.12880292246019       -1.96092724705661        0.01703144758914
C            2.97898018512436       -0.85802166109864       -0.19620337841152
N            4.33104358281414       -0.88549096269105       -0.27172597608211
N            2.30711021445445        0.29126281926033       -0.26722802100422
C            0.98385809455802       -0.00232147183009       -0.10901294595674
C            0.07655282387483        1.01680900550889        0.01284408429009
C            0.51619591810401        2.39627659318020        0.24600824026043
N            1.79161659392597        2.79880307996348        0.17338278447290
N           -0.49022791025624        3.19088518386402        0.56003750338628
C           -1.60996507521988        2.43852076610200        0.44578209719935
C           -1.37178972555882        1.11218011215816        0.11793081747758
C           -2.42615588910465        0.20868669092336       -0.22133956753117
N           -3.59671157300572        0.83861155856513       -0.55472189108779
C           -2.49825879047473       -1.16836256515728       -0.19231398778614
H           -3.27569635910874       -3.47462758184024        0.20342626134297
H           -1.77881168038094       -4.25637804282767        0.47434594050410
H            0.07371794244136       -3.32782007214672        0.52189115627940
H            2.44191906994346       -2.98307170346135        0.11387721093801
H            4.79104374596631       -0.05434479471932       -0.60156665901040
H            4.78285139597481       -1.76702799192041       -0.43975955475634
H            2.45207415400456        2.02896816174598        0.04632967295324
H            2.03601698453105        3.67962407158338        0.59153341854411
H           -2.55552090848763        2.90446340564128        0.66482998931335
H           -4.36881886935046        0.29316632933687       -0.89527453213024
H           -3.56829060759548        1.81134818171777       -0.79979483761061
H           -3.49624788940676       -1.53154098319535       -0.43204716745545
