29
 energy: -49.592986254774 gnorm: 0.000557676748 xtb: 6.6.1 (8d0f1dd)
N            1.94497486836891        3.22208663928307       -1.07087094314584
C            1.39540137570542        2.17076617735112       -0.39354508757332
C            0.01514936194257        2.29854961563862       -0.08568298419098
C           -0.94503826585240        1.34154152235866        0.09972186588208
N           -2.23012936525137        1.73144714037141        0.25380662211586
C           -2.94398794362576        0.61465864480910        0.12721776750481
N           -4.29035031559831        0.61560983306893        0.17054779373040
N           -2.25069198675653       -0.51556909266154       -0.10171251928032
C           -0.95207992408796       -0.15060479482695       -0.07446266533624
C            0.05781910767933       -1.08933472753486       -0.17966024218411
C           -0.23441305881080       -2.48365134441698       -0.39324435676017
N           -1.45408808745962       -2.94914811178753       -0.76267061714919
C            0.93280644414987       -3.21837391209066       -0.22213360210806
C            1.95325442002667       -2.34382252030417        0.14075950798381
C            1.48108713846439       -1.02811019262721        0.14921349480514
C            2.28473419709202        0.07353896270879        0.50670272337833
N            3.37953756057998       -0.17025498886974        1.27954584748315
N            2.25690520393049        1.29488878681281        0.02257403390263
H            1.34016414416751        3.86262829936041       -1.55274292686547
H            2.88892534145726        3.11840519511160       -1.40163175373400
H           -0.37355569874765        3.30884260921929       -0.12008530635919
H           -4.74025241877893        1.44620112437213        0.51069435561264
H           -4.76423595021275       -0.26637374875252        0.24534710576466
H           -2.19777504009382       -2.27141931274584       -0.60442834723396
H           -1.64242780125877       -3.92810522889647       -0.62602579141012
H            1.02487701025925       -4.28347277928822       -0.33463675793539
H            2.97258836132283       -2.63842751913564        0.32186650149187
H            3.45296997947818       -1.03485019112444        1.78207046951793
H            3.95040980121008        0.61012671329598        1.55183190819217
