30
 energy: -49.284793063502 gnorm: 0.000746862545 xtb: 6.6.1 (8d0f1dd)
N            0.71753445993938        3.48096212940706       -1.38787129524098
C            0.73757707658671        2.36854252781015       -0.57197860684221
C            1.85067523697820        1.56299327895248       -0.58486939675422
C            2.09841788349200        0.29726786837403       -0.00400375771288
C            3.36995883044182       -0.19700248060586        0.18937297892669
C            3.29725353317223       -1.54354992531877        0.61808533688787
C            1.98868243586371       -1.94878409761665        0.60540549990421
C            1.17069851145709       -0.84179295559792        0.22981765413950
C           -0.18054057948442       -0.91336540650995       -0.01386929125175
C           -0.90597617653511       -2.14861362106296       -0.36960452805733
N           -0.33195178224098       -3.33756333145086       -0.64102635067913
N           -2.19718126603402       -1.95298139064699       -0.49994887190944
C           -2.41141333560123       -0.63335629239956       -0.19463726131945
N           -3.66813911821688       -0.13624440898937       -0.24584585602493
C           -1.22544842980394        0.06338233615659        0.04219658929435
C           -1.13695215376851        1.39987775290194        0.58286861780089
N           -2.13352263526257        1.74818563696822        1.47351362285483
N           -0.31639423079755        2.33276409979801        0.27366226239637
H            1.59879155038141        3.80775388979163       -1.74767533149643
H            0.05001706789584        4.19216830068755       -1.13952360932356
H            2.70458662295643        1.97753708661703       -1.11168894350202
H            4.27923231561560        0.36350027571643        0.06630267383099
H            4.14209652617496       -2.14248708496608        0.91288945810544
H            1.61849614726230       -2.89006853330408        0.96886052988717
H           -0.90537205184676       -4.00712354847688       -1.12744721497878
H            0.66245219815574       -3.35058094845311       -0.79998419191026
H           -4.42679714027762       -0.78384659211459       -0.35123431544628
H           -3.83817637503507        0.80503297376031        0.05863668567069
H           -2.49503888782997        1.00346937924142        2.04893877253999
H           -1.96636771223877        2.61763455403053        1.95814076291065
