28
 energy: -51.453250299592 gnorm: 0.000480590276 xtb: 6.6.1 (8d0f1dd)
N           -5.08757915957126       -0.55773177864693       -1.03716535132399
C           -4.02007094701454       -0.63976724744412       -0.62118295592462
C           -2.70791290715624       -0.75237257975753       -0.11197250634540
C           -2.15018646177468       -2.00206406084567       -0.15798106197778
N           -1.11453573436341       -2.48688455969314        0.51315431479036
C            0.09636828025589       -2.17056453568338        0.72466634092714
C            0.87881391602975       -1.09748233929561        0.20177476676921
C            2.27796254892136       -1.16929916084538        0.08657557908930
N            3.04141230709082       -2.26618376574336        0.18578078202281
C            2.80343335614449        0.13590516113897       -0.19327600124797
C            4.14999230604740        0.42386844663271       -0.40132554309466
N            5.26785278278141        0.63958029991583       -0.56926589815872
C            1.74693165190470        1.03677928331625       -0.16042294902775
N            1.77268275866283        2.34761860572387       -0.34136755784469
C            0.49083266301057        0.27903221235953        0.06264649797546
C           -0.70576417768106        0.93610582228858        0.22913976160797
N           -0.68349820509409        2.32030944992922        0.37515374168779
C           -1.91356610898319        2.71804898411283        0.54661325886352
C           -2.84053369840916        1.64553482583276        0.47302062622462
C           -2.10810310334324        0.49753004334471        0.28169889887324
H           -2.71353836312778       -2.78041490114712       -0.66714144868121
H            0.61993096527909       -2.85036172806484        1.39794785932347
H            4.03762473896774       -2.19206785235073        0.06998848535014
H            2.63520715953788       -3.16183366973676        0.38893949862153
H            2.64895483917034        2.82895169540735       -0.45966958853809
H            0.87480902945090        2.81235310210672       -0.12731860150762
H           -2.13808114465317        3.75539363070306        0.72287532973296
H           -3.90723795146696        1.72501512422646        0.55041016761383
