30
 energy: -49.295483172899 gnorm: 0.000787949355 xtb: 6.6.1 (8d0f1dd)
N           -4.41041950038114       -0.32950744419356       -0.67695340041226
C           -3.08950316059647       -0.40120043421322       -0.39006903269109
C           -2.34636197044439       -1.59398329518719       -0.27946453203268
C           -1.04431432456081       -1.26670656180179        0.04245343661652
N           -0.17152351498049       -2.13623312989221        0.50339875646837
C            1.13218166257234       -2.11374374755667        0.59738864088643
N            1.67076357273669       -2.88350787515025        1.58613156823135
N            1.99792192638875       -1.62623512498088       -0.28429866365764
C            2.09822785576866       -0.42958830133804       -0.78946643099554
N            2.98171607197362       -0.29922416938759       -1.80851698578117
C            1.53449058675816        0.77964485139434       -0.26897445176750
C            2.21313443404524        1.98944134602961       -0.26164724527590
C            1.38371879932659        2.99324346082861        0.26508811024829
C            0.14266732956484        2.44626772487979        0.51044089109496
N           -0.95668534353890        3.12306850349315        1.01711743647437
C            0.17575505482613        1.04301061803753        0.18700865351978
C           -0.95894470226511        0.24889504166534        0.07368046054681
C           -2.26190577329745        0.69977148726722       -0.11631728570953
H           -4.87044099830081       -1.14013111268128       -1.05326644664762
H           -4.81455311229262        0.56926895388394       -0.87610535194464
H           -2.73439416909757       -2.58809902509135       -0.38719438549649
H            2.63816074827214       -3.14139271462988        1.49573464854747
H            1.05189146356685       -3.51905318641266        2.05967105414805
H            3.10536778621853        0.58972605831269       -2.25551489635987
H            3.43453335455068       -1.11810801568515       -2.17213650999172
H            3.24243087520671        2.13052593582502       -0.54333813204710
H            1.67049608415375        4.01401274384159        0.44488905168473
H           -0.71157310378895        3.97743378438509        1.49780543470355
H           -1.58909621651320        2.54060982048148        1.54754241168438
H           -2.56684377637052        1.72412740077614       -0.21197450584426
