34
 energy: -63.374956327793 gnorm: 0.000854117337 xtb: 6.6.1 (8d0f1dd)
N            5.81127026090724       -0.78111228428224        1.30410950227850
C            4.75973611625783       -0.52980240069106        0.91623108478351
C            3.48995866796488       -0.19563864308105        0.43317392256414
C            3.17314066960975        1.01699476367012       -0.23777014942532
C            1.81519175251802        1.04730870785421       -0.49049420499121
C            1.21499174570387        2.09100025838879       -1.27115722429990
N            2.03008454292198        2.61844150121147       -2.21533624584329
C           -0.00290641594877        2.71880563573469       -1.08557212862023
C           -1.07844243757528        2.52087411673695       -0.20306644824441
N           -1.77988507203432        3.64234502663058        0.09581232913831
C           -1.63194053089583        1.30400558257029        0.27350772876328
C           -2.79490784611927        1.46588830593758        1.06411479608377
N           -3.67375117016243        1.64914194779862        1.78248235109694
C           -1.32737483118634       -0.04106746955297       -0.00268536835187
C           -2.31853571575284       -1.03652546968447        0.04219615108225
C           -3.70697975724746       -0.88723825456609        0.05882447429748
N           -4.85602810076656       -0.87143697973008        0.01331516844239
C           -1.70552462997355       -2.31265112494540       -0.08729664280947
N           -2.34221066524684       -3.48290168556122       -0.15847196113011
C           -0.30325007824339       -2.11433199015322       -0.14400168202977
C            0.58231218106831       -3.18072299220255       -0.30803871940575
N            1.22657938317319       -4.12157206816911       -0.46027274049413
C           -0.02800918518452       -0.73406765296684       -0.12116636203983
C            1.26104927464849       -0.21332598968453       -0.01386219201429
C            2.33838596784766       -0.95956895075793        0.51699037930936
H            3.88528795808768        1.79768712588989       -0.43765149453905
H            2.93576453120111        2.21702214564915       -2.37511515876701
H            1.75122950628398        3.42051533583536       -2.75247250457925
H           -0.09447627257380        3.64552211757819       -1.64596537537497
H           -1.47541313233117        4.53769875803619       -0.24059952138023
H           -2.62759349676310        3.59085052391515        0.63569546019080
H           -3.34750713380251       -3.51377347662563       -0.11682591957350
H           -1.82025386189291       -4.33702468170201       -0.26464938256368
H            2.26103942940533       -1.92481348328218        0.97862870274537
