30
 energy: -50.083530720537 gnorm: 0.000801672323 xtb: 6.6.1 (8d0f1dd)
N           -3.36958047543020        2.41807146289924        0.37270624068455
C           -2.37462603107061        1.87092477403345        0.19076246590086
C           -1.10623040958978        1.26517474447342        0.00302992675798
C           -0.02417424207798        2.18162293336222       -0.13204887663365
N           -0.34757082678632        3.48515521293492        0.11033215105706
C            1.26771626447642        1.97782379819162       -0.60837420903482
C            2.17519178366290        0.91845645590811       -0.67251838394215
N            3.31856914138909        1.19809101422074       -1.35545089945664
C            2.17128975262561       -0.33681581416920       -0.01366386537651
C            3.36390519866532       -0.95540733197480        0.38536392767638
C            3.07187462901493       -2.18406321978610        0.97801214660639
C            1.70883989755755       -2.39397877648308        0.89431875319024
C            1.09939959182143       -1.26768700753520        0.30833357190799
C           -0.26948065709785       -1.24981556595813        0.00729518080453
C           -1.07532130211785       -2.37460675506592       -0.04345867423935
C           -2.39775137823374       -1.92599548093445       -0.24625770069781
N           -3.49595697918973       -2.67741777983901       -0.40958651706978
N           -2.47536197790959       -0.58510376401873       -0.26998142026848
C           -1.22712979566588       -0.11516830485990       -0.13615131201751
H            0.30702735959767        4.21355652718846       -0.11176901900948
H           -1.30674984361698        3.74093199040023        0.27313862906818
H            1.71624258858431        2.90851857015871       -0.95226716495879
H            4.05038150171986        0.51323509095800       -1.39510231855566
H            3.50029867814381        2.12209828695697       -1.70424556489009
H            4.34890834669502       -0.52263047474995        0.34454109635926
H            3.79088394762878       -2.84827910160974        1.42331971400118
H            1.18291714213667       -3.25281105324511        1.26600094694499
H           -0.76842785791080       -3.39991472978200        0.00694101252001
H           -4.37779939278011       -2.21512412173270       -0.54048921032916
H           -3.44849619624283       -3.67858426604619       -0.37116013580018
