29
 energy: -55.967609283830 gnorm: 0.000989845231 xtb: 6.6.1 (8d0f1dd)
N            5.77295257078138        1.65338081459198        0.30626603929298
C            4.68876721559516        1.28029358628224        0.23480013819993
C            3.39427987821613        0.76223423347411        0.11796852932154
C            2.20106466720537        1.37218167802279        0.45652606215693
C            1.12282775065472        0.49543862378959        0.17042299973362
C           -0.17466349103327        0.98548551203715        0.16690688475640
N           -0.33674489618006        2.31106570669972        0.36355696921769
C           -1.60923977150248        2.60474167242129        0.15482868055877
C           -2.39021599891455        1.47867006496341       -0.15836785579069
C           -3.75603031602901        1.51885393076548       -0.44248307654345
N           -4.87135724452598        1.63408988817645       -0.69338446933371
C           -1.51585189509561        0.36844735410949       -0.10976665110790
C           -1.94296533553536       -0.94934637443553       -0.05591905990397
C           -3.32351158845962       -1.23042608138455       -0.05716490710848
N           -4.41881246825403       -1.57869989257526       -0.02815220080629
C           -1.12943509910150       -2.12488951562213        0.17960251901716
N           -1.65465393835795       -3.07333054213109        0.97789977696401
N           -0.01918883292298       -2.42117582402576       -0.42399522135411
C            1.08934559182495       -1.88978538570827       -0.82148353170725
C            1.71599424220567       -0.73465874289362       -0.36909783962164
C            3.10928651089986       -0.52738639979374       -0.43496251655919
N            4.05887849876313       -1.39376564320667       -0.84057503381166
H            2.07478465968640        2.36222279945262        0.84803635375669
H           -1.95583020711881        3.62088802703736        0.22091243128352
H           -2.60395203989850       -2.99421557587395        1.30356557685128
H           -1.17317682559716       -3.95069062840487        1.08171573847007
H            1.64037837319362       -2.52779972543772       -1.51056118021373
H            3.81395002631118       -2.23103147241500       -1.33818578333763
H            5.01458227078798       -1.08150447851836       -0.87450454318563
