29
 energy: -55.195216609651 gnorm: 0.000629038727 xtb: 6.6.1 (8d0f1dd)
N           -5.33374650859532        0.18911901785422       -0.82588535563299
C           -4.23073520862778        0.01454887002108       -0.54720305756852
C           -2.91130409048614       -0.28949330823857       -0.23662233037378
C           -2.39276033827822       -1.63311599227967       -0.14973986893525
N           -3.11623415632330       -2.73448634025348       -0.37699784802667
N           -1.11451192011925       -1.66580042825888        0.18349295874131
C           -0.67634717983398       -0.36556617618984        0.25396178586354
C            0.65918097460010       -0.06294727782619        0.22105358091810
C            1.65443753186916       -1.12734816508335        0.23711219383021
N            1.36012957035479       -2.40290583734426        0.47688858179244
C            2.91184931797692       -0.57479875393284       -0.00891901533082
C            4.12298166214985       -1.26025240352122       -0.06371554591369
N            5.13011714775595       -1.81459027905106       -0.11976570710986
C            2.74834537948842        0.82304919007457       -0.23984346740253
N            3.77875201550006        1.64719117189534       -0.50239100008605
C            1.39219785070506        1.17330685932693       -0.08466552245734
C            0.93112945190669        2.46324753643636       -0.38963153122215
N           -0.09580493764594        3.11635026289144        0.04514520800019
C           -1.14257487134913        2.74123439877801        0.75017786513427
N           -1.97927004924357        1.78155360350085        0.55253180649338
C           -1.86253528063527        0.54743375660201        0.13014324317904
H           -4.08646176005700       -2.65050759416339       -0.62509366397316
H           -2.70828623192830       -3.64203907852323       -0.24168946253565
H            2.07251084872410       -3.10880894398314        0.39976617362097
H            0.35888791984401       -2.61210025062762        0.48637019223456
H            3.62152730211599        2.61248802109847       -0.72989506817918
H            4.69449487009962        1.25689231389593       -0.64277326026612
H            1.59168105840988        3.07361660368190       -1.00505219782347
H           -1.45829910377759        3.47241210131847        1.49437612963049
