32
 energy: -58.350505404656 gnorm: 0.000673866781 xtb: 6.6.1 (8d0f1dd)
N            5.32096565373787        1.88403299608134       -0.92839704592660
C            4.27087451596488        1.50001575096950       -0.65450617357974
C            3.02069430743739        0.97996740682991       -0.32501464356170
C            1.78034983749023        1.60209426670047       -0.45129529149684
C            0.76814651407155        0.70845412021367       -0.06320906816800
C           -0.56378475424326        1.12757195320798        0.11121060236627
C           -0.95734697303558        2.45118013112182        0.19001396665654
C           -2.35813682444233        2.45880769952075        0.38337875551237
N           -3.13937078833409        3.52748870063729        0.58166743109456
N           -2.87849128524158        1.22060580750360        0.37208566445741
C           -1.86012432399181        0.37192250121832        0.19287119117939
C           -2.16571313266820       -0.95151900695278       -0.09611934202978
C           -3.52996118753085       -1.23390319577483       -0.30929786995153
N           -4.62011414577734       -1.54005004323246       -0.51034547050384
C           -1.28536808768320       -2.07515179988657       -0.25776671341198
N           -1.71037363317637       -3.07071295818327       -1.06695459873872
N           -0.20294761564935       -2.31051218640341        0.42011333005600
C            0.84892093131199       -1.69550065475414        0.88402082835397
N            1.54802083075138       -2.37860834373849        1.82605540561795
C            1.43402770940472       -0.52113374086195        0.34221315613079
C            2.81287060829673       -0.32183334956074        0.20943700599025
N            3.83031306382610       -1.19760108519925        0.53166076899307
H            1.62942481383301        2.59774763067867       -0.82163612688109
H           -0.33117245130014        3.32048459454408        0.18675710424383
H           -4.12698188470928        3.38280556673746        0.69746724328107
H           -2.76652850308770        4.45763099662018        0.52907141772382
H           -2.64657052967882       -3.04740348007822       -1.43525822463261
H           -1.19321576243526       -3.93226691723470       -1.09096257360143
H            1.10688029978933       -3.17163883079152        2.26065199837884
H            2.27926115878890       -1.90018496950315        2.32314302585944
H            4.71881330283466       -0.96220681825758        0.11195850894729
H            3.60059545515260       -2.17881629946756        0.46824806824072
