30
 energy: -50.871885806296 gnorm: 0.000802273858 xtb: 6.6.1 (8d0f1dd)
N            3.87481569171827        1.85685734103541       -0.40512652588912
C            2.73138933264915        1.78439132649909       -0.28681160714676
C            1.34545631985516        1.73963981328501       -0.14410761708812
C            0.51790854293639        2.82930241339890       -0.35880124407958
C           -0.81614376976840        2.40439963349089       -0.31787599309660
C           -0.87142394736509        1.02457990171800       -0.19131960948531
C           -2.11284796443613        0.36850051539541        0.02577109414713
C           -3.09217161344539        1.24019031766793        0.55012999500834
N           -3.90201437775326        1.92005699654446        1.00584724030086
C           -2.59154649525650       -0.91098958006018       -0.31670433476967
N           -3.91819983929141       -1.12999127190707       -0.11277922253999
C           -1.91795533001578       -1.98879473912260       -0.94016749711620
C           -0.61473622592065       -2.40594667299235       -0.96236490076493
C            0.56226999738505       -1.99106626094691       -0.33315263482343
C            1.65864855911992       -2.83773362917764       -0.24669068242281
C            2.69033936137342       -2.24419485336057        0.49952360025020
C            2.31505658292303       -0.95657765723743        0.82696903365571
N            2.94703612884350       -0.14894593368565        1.71970604518370
C            1.01082524869767       -0.69718691732132        0.23742766326998
C            0.52592614632585        0.55072614887413       -0.03866507073269
H            0.85221206241135        3.83317128295435       -0.55019624868435
H           -1.66850476764489        3.04994613242673       -0.42031293287449
H           -4.33285874236332       -2.00266903820881       -0.38452227978432
H           -4.50864191912291       -0.40129190943003        0.25027950384073
H           -2.60925866761809       -2.67840304653568       -1.41441587228893
H           -0.47618166991804       -3.34915562108503       -1.48287754957260
H            1.69193039589211       -3.83422564563180       -0.64948281979972
H            3.61207907145213       -2.71776929024411        0.78050190816947
H            2.66395037851889        0.81486087204140        1.78060555525740
H            3.92845608881760       -0.31680806538573        1.86836699237602
