31
 energy: -54.598375474550 gnorm: 0.000914714250 xtb: 6.6.1 (8d0f1dd)
N           -5.41830433523749       -0.31256031250647        0.51795796764718
C           -4.29998626598575       -0.13047113815903        0.32064292924880
C           -2.93206700724286        0.02809548307433        0.09365449032829
C           -2.22043446389757        1.20690115087806       -0.02766893655383
C           -0.84379883766370        0.90286560165559       -0.15461176814857
C            0.10601154880018        1.90258613435959       -0.32656322142145
C           -0.16845286909643        3.22347141507887       -0.70186326085675
C            1.00795465244940        3.93782328768794       -0.52968408440934
N            1.98438451643998        3.20307573953525        0.01897132373808
C            1.52617206775424        1.95167667436403        0.13356018410524
C            2.32245760891653        1.03420693304527        0.79580403059459
C            2.40109151227078       -0.35725908696192        0.81048404403492
N            3.38319958594135       -0.87373502898002        1.59663568784157
C            1.71069225340934       -1.31433807490645       -0.00039364936884
C            2.49417185699564       -2.45076167318159       -0.28796903192017
N            3.13072541133730       -3.38019014511292       -0.52931838141923
C            0.39287729621321       -1.38233359770057       -0.48384947292669
N            0.08384633070167       -2.45839204449008       -1.24457806414271
C           -0.72321016263909       -0.55166069427464       -0.15675439775379
C           -2.01518316283947       -1.06612750332011       -0.02933994813207
N           -2.42375437918891       -2.38522652406896       -0.01299454380105
H           -2.63325396328832        2.19460890208536        0.03566691910826
H           -1.08466302987785        3.59507872391309       -1.11583273698525
H            1.19100453151547        4.96745016674203       -0.78335116426182
H            3.14135184675043        1.52410508448109        1.31434806786017
H            3.62468793925204       -1.84913084923521        1.53176393513487
H            4.04915988475868       -0.25272891819620        2.02381787572925
H            0.79268829074924       -3.12233812058401       -1.50944623558096
H           -0.83428024550833       -2.53360532595068       -1.64584981972078
H           -1.76229632556028       -3.05320715240533        0.35478700030134
H           -3.36333340492802       -2.51723812046663        0.33532363863019
