24
 energy: -44.541533411321 gnorm: 0.000719768453 xtb: 6.6.1 (8d0f1dd)
N           -4.50387247708029       -0.64589550916664       -1.00059426394344
C           -3.48821990240888       -0.21270000783684       -0.68576047081973
C           -2.24521860428068        0.30786180582613       -0.31411754515283
C           -1.90618081847845        1.65939684576866       -0.19576006112720
C           -0.57320814992760        1.79603210459908        0.21371339024643
C            0.02583829143788        3.03242769247841        0.47432602619863
N            0.46972849049513        4.06805471910388        0.69846862787462
C            0.01358802084158        0.50512555152644        0.27685650639590
C            1.33799449098788        0.17371461460055        0.14468749443402
C            2.39356371614289        1.14874608027132        0.09501218473412
N            3.55452374203609        0.61651810282164       -0.18732717547890
C            3.35038322326217       -0.70131923380802       -0.39744935457067
C            2.02904992381229       -1.09383196197484       -0.19533460535220
C            1.68152008368512       -2.44923620944099       -0.33423679612627
C            0.63127907794442       -3.20553300036741        0.11848743639338
C           -0.54413120932332       -2.75652776505975        0.74900454057819
N           -1.19126769770546       -1.68001246690435        0.49659730400338
C           -1.13230517925122       -0.46216549291689        0.11243713625950
H           -2.57481210400607        2.48003436064562       -0.38759461025134
H            2.29133218578475        2.20163499309770        0.27429644045577
H            4.17592038291269       -1.33586372448445       -0.66385726646941
H            2.49630430761211       -3.02794042029159       -0.75883262075703
H            0.74094970829322       -4.28012449526930        0.05703661663776
H           -1.05738659958501       -3.44080732851749        1.41975819603675
