27
 energy: -42.112186227367 gnorm: 0.000844565411 xtb: 6.6.1 (8d0f1dd)
N           -3.73653926059656       -0.64785728298266        0.05774524851564
C           -2.57188972278421        0.02513089787473       -0.00556743947089
C           -2.47962939962241        1.43616879833578       -0.16628176966464
C           -1.15625987672022        1.76811351931647       -0.12684853050235
N           -0.56206652621075        2.95382255436705       -0.25895549083971
C           -0.35434292670505        0.50280863148486        0.00949709133259
C            1.02879440956901        0.54948896914843        0.04689776037034
N            1.65926692633130        1.76664001652105        0.26721024568661
C            2.94737689990277        1.55015343567210        0.23122470804803
C            3.24377909783406        0.19633198030060       -0.07045234538716
C            2.04017299133782       -0.46451759086775       -0.17275205715779
C            1.96427259454310       -1.83356292865817       -0.63413671049273
C            1.05830439878159       -2.79652799134926       -0.43908848567260
C           -0.16453421231693       -2.83307387572641        0.33909342037957
C           -1.12657469286434       -1.92401184555042        0.52856271959694
C           -1.28340817102979       -0.55012874411874        0.09850435728447
H           -4.60166617122311       -0.16561064496769       -0.10861818510530
H           -3.73578663963414       -1.65256519384800        0.04328970984611
H           -3.31309955743874        2.10274502032085       -0.28177560195294
H           -1.11049303788871        3.79595749910538       -0.27693259911996
H            0.44893563421910        2.93056418996448       -0.05218622655603
H            3.64920055696825        2.34719875575403        0.40703595169350
H            4.22512567511884       -0.22300599572503       -0.19130544871783
H            2.84133156210117       -2.11045160981982       -1.21157540985051
H            1.29381896950109       -3.76426566538727       -0.87337576735068
H           -0.33767360763002       -3.81020866742631        0.78035721738416
H           -1.97497256944256       -2.26287234683837        1.11998619130373
