32
 energy: -54.324175604936 gnorm: 0.000689475730 xtb: 6.6.1 (8d0f1dd)
N            3.07029452285168       -3.78085838690255       -0.38793071717279
C            2.37245430186272       -2.88088368436263       -0.22062709826775
C            1.52369835448014       -1.77193530189691       -0.00766418931403
C            0.30849385117261       -2.15495515093525        0.58943943134616
C           -0.93903268568234       -1.59259369790890        0.66854665339097
C           -1.49618252744590       -0.39653007122277        0.19800300749408
C           -2.88143775209269       -0.26822250024929        0.07961393040157
C           -3.84818523435634       -1.23817764688669        0.32150445641346
N           -4.69050636233711       -2.00158861588191        0.50911517458623
C           -3.19263153458145        1.05883929974507       -0.38156090032993
N           -4.43849110740980        1.48619483453585       -0.65338943198403
C           -2.00622318735428        1.76517944041914       -0.47416946911808
C           -0.92452860073735        0.93154396297017       -0.13019327741375
C            0.36549215389540        1.41464697375539        0.04128491807250
C            0.59723626786414        2.80868903365050        0.22480723683318
C            1.93499725583216        3.03338073318647        0.39226117492961
C            2.62014888795213        1.80410105444750        0.23512278988153
N            4.00413445084352        1.69587395579169        0.30646719302505
C            1.68602539142168        0.78004077306017        0.02753744991104
C            2.08981283522993       -0.52771924925921       -0.36361030431984
N            3.25850132813209       -0.58540679947698       -1.04623514657820
H            0.34588487202984       -3.17638114200018        0.95837969279903
H           -1.69082293496332       -2.25768702172740        1.08351903075563
H           -4.59643474030945        2.41477576548914       -0.99973030483176
H           -5.21551131149900        0.85463449419986       -0.56705800227807
H           -1.92737192806171        2.78348409997860       -0.80138596635336
H           -0.17444669564736        3.54757014297826        0.31501856803572
H            2.40879754441701        3.97316832869350        0.61207240487277
H            4.34872643114772        0.83078253458087        0.69979563652388
H            4.43842355372499        2.50392961864285        0.73024091120754
H            3.71469992134699        0.26447274769217       -1.32763645895633
H            3.65552631507200       -1.47331701590700       -1.30464289746137
