28
 energy: -53.030687025241 gnorm: 0.000560203497 xtb: 6.6.1 (8d0f1dd)
N           -1.42307137728966       -5.25585351278659        0.40580849478534
C           -1.22284880947455       -4.13522104395987        0.27929973171752
C           -0.96620043469940       -2.74139851758137        0.12492089064518
C           -2.11648842260799       -2.00390916845688       -0.13498065393504
C           -2.39448377817086       -0.64777394532700       -0.25401028997906
C           -1.68985331760191        0.53298668026927       -0.10365605823453
C           -2.42638782874198        1.75153383279338       -0.08727474973020
C           -3.81577256425688        1.85907375558670       -0.22852038995786
N           -4.95417725225073        1.94274528943655       -0.35179730888106
C           -1.56045345388772        2.81541208704214        0.14585937561632
C           -0.25200162512230        2.31925022350051        0.22185042821124
C            0.81680893863444        3.17677462191527        0.51877142854168
N            1.62693478715574        3.94357981682803        0.79217932973529
C           -0.26043817375319        0.91063418480017        0.04914946545023
C            0.91085715216561        0.16123841120883       -0.06710501058069
C            2.16056637324451        0.76068435821728       -0.24217489362193
C            3.16404611327245       -0.21965299604599       -0.20311214296029
C            4.53927239738731        0.01103398531845       -0.36834036672669
N            5.66405370906078        0.18455940235665       -0.50805347941165
C            2.57115527469246       -1.46478142114038        0.01839059871217
C            1.17678791986511       -1.31195374651920        0.06173646155863
C            0.40053463493039       -2.44042962871275        0.21726604058269
H           -2.99919559975969       -2.62834627151503       -0.23432941158308
H           -3.44879288318350       -0.46080845596910       -0.44231527274270
H           -1.84115399265795        3.84699263252373        0.25803153560148
H            2.34822951688803        1.80235861834886       -0.41075267568441
H            3.09601055295332       -2.39842891603112        0.09750463135943
H            1.00220419990528       -3.33104109740216        0.38527098511019
