30
 energy: -50.078268348824 gnorm: 0.000815019845 xtb: 6.6.1 (8d0f1dd)
N            4.92041339624797       -0.06318991667779        0.65965617780345
C            3.84493862056874        0.32394687934734        0.51788200673530
C            2.54852527425268        0.80262189465039        0.35371516034434
C            2.13342007046645        2.17070525073567        0.54090557471702
C            0.81941393674301        2.29203463006134        0.22954376839606
C            0.28338620597247        0.98087529995000       -0.04643657143003
C           -1.04545300949768        0.66775004648106       -0.14449341105830
C           -2.07828821351799        1.67171569063226       -0.47854225724774
N           -1.80819111330922        2.91029667204420       -0.98323860395703
C           -3.30449897111030        1.12999794791326       -0.25088912004226
C           -3.11918143299606       -0.20208649618914        0.23871144031783
N           -4.16254814141608       -1.01820116664482        0.54431172624829
C           -1.76172126622955       -0.53152548592895        0.24132633557437
C           -1.30823822341253       -1.77431976172592        0.78942286971243
C           -0.21750855535574       -2.52212144719786        0.54911469576525
C            0.83135225835039       -2.23650244655693       -0.42450902383116
N            1.13292244745840       -3.25735357750585       -1.26837597360705
N            1.51852792281262       -1.16450307812303       -0.54293337006133
C            1.43884536745139        0.05678928785793       -0.01209933324715
H            2.79070811805004        2.95370358855220        0.87511252862449
H            0.23322609094270        3.18335957502240        0.34437822665611
H           -2.57984168826833        3.38855356504415       -1.42005126174538
H           -0.91088433651737        3.03767010401546       -1.42219021901491
H           -4.25854440364831        1.59178889592981       -0.42566129363665
H           -3.97127568303568       -1.87375287913960        1.03915141508616
H           -5.04952401297316       -0.58321365930110        0.73501380999074
H           -2.02663407219200       -2.22461405196214        1.47208604889304
H           -0.13424290012851       -3.48591359965788        1.03478926863664
H            0.79793347072083       -4.18338496633133       -1.07373784717166
H            1.93823342227320       -3.15023560279909       -1.86134378725257
