22
 energy: -39.524500809634 gnorm: 0.000786980291 xtb: 6.6.1 (8d0f1dd)
N            3.88562096117144        1.03079210523420        0.32062545251741
C            2.67746609906822        0.51308718968944        0.13175613225246
N            2.42755273171600       -0.79794068522486        0.34750317908895
C            1.15382063054687       -0.94984103339007        0.00607745582193
N            0.60212523786171       -2.07972641235783       -0.25715758747179
C           -0.52314229155744       -2.68516830478651       -0.34417795690592
C           -1.73965649864676       -2.40297468342278        0.31511374887857
C           -2.29906645422618       -1.17771270613903        0.56094993436902
C           -1.94739545262107        0.13401983114330        0.19090624214649
C           -2.89911808807493        1.15712975660978        0.23676750388287
N           -2.41235255922504        2.35518424477000       -0.13253025038170
C           -1.12874332663697        2.18219350809210       -0.37558176307266
C           -0.72649075852327        0.82524079078065       -0.23843675368121
C            0.59667790904860        0.44167097650600       -0.27142219985351
N            1.63478393610801        1.26914068482445       -0.26817799834369
H            4.62559072533700        0.43833331193081        0.65235718965033
H            4.04331946624776        2.00025395759066        0.11144682146973
H           -0.48371161297218       -3.60159245165184       -0.93063791272162
H           -2.35248455254249       -3.26852210667770        0.53330149642375
H           -3.28773824597123       -1.21860443697359        1.00843168070966
H           -3.93537022266680        1.05608040717678        0.50664590820616
H           -0.48610179774129        2.99401628827589       -0.65868111498514
