27
 energy: -46.146325476308 gnorm: 0.000695532474 xtb: 6.6.1 (8d0f1dd)
N            4.10044760699615        0.34448373284922       -0.01323903564172
C            2.76095202981905        0.47396342056407       -0.01706596427450
C            2.03836882662556        1.64139784839033       -0.32620130441327
C            0.70615341521149        1.34158099740332       -0.09725632839304
N           -0.24144172789141        2.22757605446391        0.06835294120601
C           -1.53465441866390        2.13943401475724        0.26432751310888
N           -2.05329433703435        3.03855167894597        1.14461616750963
N           -2.44699813472440        1.46319601450986       -0.43105853392991
C           -2.48249158768060        0.21021473188216       -0.77193036219122
C           -1.71933123698552       -0.89390181424174       -0.38738399103632
C           -2.20988618029756       -2.19525739437213       -0.55698430192987
C           -1.27912400362422       -3.13320522497846       -0.12558110291432
C           -0.13224879760512       -2.45699452611751        0.27666737589455
N            1.01666168642830       -2.97740030319458        0.75302063977329
C           -0.35035550823452       -1.03294813963039        0.13100316258905
C            0.69495462602454       -0.14324106603506        0.19322027019203
N            1.97728530416088       -0.56048810369919        0.33206337492651
H            4.67646787356790        1.06622891108278       -0.40520846443086
H            4.50266009910534       -0.55321008068586        0.18751589429945
H            2.45120403428407        2.59668549745316       -0.57802049098978
H           -3.04297285909343        3.21015696534071        1.11065096493552
H           -1.44692315790231        3.76159468132608        1.49056974622174
H           -3.35025599308544       -0.02746341744493       -1.38644179722068
H           -3.18624707115622       -2.42480957342791       -0.94665353901169
H           -1.41067707204066       -4.20002241206571       -0.11827613120312
H            1.19523711169711       -3.95733012719057        0.61163956999698
H            1.78576147809951       -2.30580521518478        0.75888857252662
