33
 energy: -62.075973422105 gnorm: 0.000760243559 xtb: 6.6.1 (8d0f1dd)
N           -1.93915498614412       -3.79381749104946       -1.34183902265513
C           -1.37248863264012       -2.91027247488942       -0.87194928982509
C           -0.62698862533364       -1.83710565474042       -0.33268311022857
C           -1.47260403672402       -0.80716647698613        0.15118508674142
N           -2.75222523091305       -1.07390552440435        0.34232644053625
C           -3.33266886894618        0.13029152233809        0.60889731849845
N           -4.64499362449294        0.20901780683881        0.86209261490878
N           -2.52416437056880        1.17705318281523        0.55279797629135
C           -1.28712390392683        0.65157893681993        0.28636023111919
C           -0.20446745490183        1.44663234002125        0.03168696915527
C           -0.36382120169251        2.88039255312775       -0.24756561705335
N           -1.53921047253179        3.49132571898058       -0.20253470680705
N            0.77844918181365        3.44622005720489       -0.59147793822730
C            1.72853802328656        2.48477875445901       -0.46398244430464
N            3.02484725443843        2.82505702176762       -0.70813851157580
C            1.21171601796292        1.22670389641546       -0.08236863266350
C            2.01830052985713        0.15280555328684        0.39481799907923
N            3.23488572793403        0.53733212450581        0.88026349939973
C            1.77931899991709       -1.22376887808799        0.34739777432557
C            2.80417754821770       -2.02153968062149        0.88914252933083
N            3.63708217954330       -2.67025045384608        1.35412460926492
C            0.75544222032474       -2.02053598561509       -0.29225054827026
N            1.22532736908732       -3.17034162921064       -0.83549994749893
H           -5.15309797888193       -0.64965948336583        0.97240379999609
H           -5.04411954916611        1.07962478322651        1.16053364404151
H           -1.62116228243347        4.45395991938727       -0.47650720365335
H           -2.31826659787253        2.89632631936688        0.09132680426858
H            3.65290776203794        2.09184271358806       -0.99597910554847
H            3.12926788875597        3.70945856162313       -1.18102924827915
H            3.35738556690487        1.49702858095827        1.15474681164874
H            3.81749077026383       -0.15428364812925        1.32536351256173
H            0.57272624491690       -3.87083577115698       -1.15023496442220
H            2.18768652260643       -3.43368469272797       -0.70318107885612
