30
 energy: -55.695586000253 gnorm: 0.000474272832 xtb: 6.6.1 (8d0f1dd)
N            1.23227232258279        5.12625004287246       -0.01168099589447
C            0.84023805007449        4.04730579571913       -0.01095452487771
C            0.38039666221889        2.70471066025312       -0.00873939729285
C           -1.02420383440489        2.61500526815813       -0.00125892843095
C           -1.93646725951357        1.59204836013661        0.00258841254880
C           -1.86299062339471        0.19207849985241        0.00064643939371
C           -3.02685681324256       -0.57576698959164        0.00287482948583
C           -4.35457423426659       -0.16418282692348        0.00875242813030
N           -5.46919581291496        0.12297408380675        0.01446333078806
C           -2.60820022226934       -1.95771386276652       -0.00130763294628
N           -3.42557899077227       -3.01017660111908       -0.00266905485122
N           -1.29085406306932       -2.06435470705755       -0.00374512359911
C           -0.76520715618293       -0.81313237937325       -0.00254437192359
C            0.61283721370343       -0.71430921754689       -0.00195275518850
C            1.37897594728456       -1.90024930116309        0.00231160599525
C            2.72689946776052       -1.58531004344378        0.00044870601680
C            3.80836620151324       -2.47271490040346        0.00998805207748
N            4.72752890758692       -3.16193188059090        0.02176399569507
C            2.86570886411104       -0.16575449485284       -0.00641943222395
N            4.06648570374483        0.44819635021152       -0.02649756658332
C            1.57331204062125        0.41636896019187       -0.00732600119847
C            1.43491381713619        1.79116802093499       -0.01269746233200
H           -1.48686974151981        3.59818764157814        0.00173367907898
H           -2.96793597035361        1.93308787668815        0.00773845795349
H           -3.03305591791310       -3.93571201177608       -0.00715621190115
H           -4.42289267384616       -2.88238314212721       -0.00131822515819
H            0.95428221212997       -2.88435536472362        0.00729243652838
H            4.15436788616536        1.44648060506071        0.02394359982341
H            4.90066400233235       -0.11010922696697        0.01978936922616
H            2.39249386489744        2.30779788326112       -0.02097356573939
