19
 energy: -36.347135664766 gnorm: 0.000625914936 xtb: 6.6.1 (8d0f1dd)
C            0.60335599164812        2.39912856489103       -0.46318326652822
N           -0.54707713856141        2.54299967146517        0.15087330556305
C           -1.45473733842360        1.70364743842793        0.50548825523995
C           -1.63684683593294        0.37066903687129        0.07522054328964
C           -2.86751015517187       -0.27713083215729        0.07118510632712
N           -2.77514770945489       -1.57867911690799       -0.28407962688552
C           -1.50151953523002       -1.84023393245640       -0.44900074775804
C           -0.67566482027105       -0.68049077445348       -0.28342204927531
C            0.69521376996755       -0.75348043367968       -0.20593090513958
N            1.39243011567141       -1.89116753486839       -0.12356246874121
C            2.58193515951719       -1.53640508447754        0.35398936127186
N            2.79742963974681       -0.23867571742546        0.58453616992905
C            1.69281169125651        0.36327275884389        0.15045421983288
N            1.57324967860018        1.61191432257780       -0.12699146411305
H            0.84956729672690        3.17311713978135       -1.18657675021031
H           -2.24412012559383        2.12163127961866        1.12446055474404
H           -3.82667099373897        0.15760261533647        0.28642318995128
H           -1.14046738815594       -2.82118328810798       -0.69240068191027
H            3.34235294599966       -2.26919886637942        0.55778872061253
