31
 energy: -53.826783454021 gnorm: 0.000601983327 xtb: 6.6.1 (8d0f1dd)
N            5.19317992928354        0.82194082531252       -0.03873579410488
C            4.08366766558368        0.51335684131356       -0.00488417020070
C            2.74651862299430        0.13025374024747        0.01676798360889
C            2.27476874469877       -1.19987711521741       -0.03236014864278
N            3.11787886473950       -2.27360801434019       -0.03209761852686
C            0.85743345848167       -1.20351311100415       -0.00929210582585
C            0.17750115667923       -2.40672912743275        0.00602641852220
C           -1.13418435684313       -2.85122428163646        0.03352751638167
C           -2.39610652347505       -2.24870538515731        0.01552738258410
N           -3.43817467662083       -3.13001479693875        0.03366467888808
C           -2.81005940952561       -0.90530553529373       -0.04679592927223
C           -2.19908889079763        0.32418409171656       -0.05600588238210
N           -3.00895451160317        1.40021066911242       -0.09815525294485
C           -2.19281829678539        2.45862403766264       -0.05521483064425
N           -2.65895247394211        3.71617025700974       -0.10963702845414
N           -0.88185394610234        2.18898224394031        0.01508959041943
C           -0.79054776534309        0.83632577951893        0.00497481324115
C            0.43864630159295        0.21910959608236        0.02958631593336
C            1.63822172017491        0.99841479197189        0.06074138848817
N            1.68262860130395        2.33323507102647        0.13076097490387
H            2.78186083405531       -3.15584214793025       -0.37997381873618
H            4.08719862896178       -2.07348327628720       -0.22027112177591
H            0.86321611505769       -3.24981812476791        0.01585922625242
H           -1.20495757351879       -3.93493826102435        0.06627367951112
H           -4.38319679727437       -2.79452909643669        0.07858084982463
H           -3.27362337939625       -4.11506624487922        0.13404201788181
H           -3.88903740267694       -0.78875389543016       -0.08360664243886
H           -3.65073278931765        3.85418699849431       -0.04155887915746
H           -2.03251566951211        4.47970108527544        0.06803678785541
H            2.55994354684421        2.81689911186884        0.05487377525668
H            0.76691242888312        2.78402057482281        0.07960752045375
