28
 energy: -47.431943459556 gnorm: 0.000796934153 xtb: 6.6.1 (8d0f1dd)
N           -5.79145642379573       -0.07307288708857        0.83191053314936
C           -4.66833801287225       -0.12847431372804        0.59970054620317
C           -3.29924523123447       -0.20323520676820        0.31259032343373
C           -2.61153077999062       -1.37992575075856       -0.09089243209459
C           -1.26352628910519       -1.09983397967161       -0.21342025818627
C           -0.37098270640598       -2.10999120611609       -0.62011145632766
C            0.97076957251447       -2.31333243389191       -0.50950134487652
C            2.05571503145949       -1.58155195019626        0.04194426159611
N            3.11060656154046       -2.36553443121311        0.39621319692737
C            2.23738739912396       -0.19157376491007        0.17299949131273
C            3.53128074104097        0.16779746563782        0.63162055198526
N            4.57754939738128        0.41743384042504        1.03703458676406
C            1.45972413109186        0.94459473199555       -0.14476770242644
C            2.05368622257557        2.18492104117459       -0.30445286967502
C            1.05937106686089        3.16919470746108       -0.44863595235968
C           -0.17922919216516        2.58310657790242       -0.31418698327170
C           -0.02461547869604        1.18926956270515       -0.15083345003532
C           -1.09929808535867        0.34486983564192        0.04378251081946
C           -2.39299039726084        0.83859860505820        0.36556209570475
H           -3.07392658513997       -2.33874605938823       -0.23756962597136
H           -0.90230586636869       -2.96783792489419       -1.02209445125976
H            1.28631265088954       -3.30356117928640       -0.82541064365919
H            3.05771015344955       -3.36266122742850        0.29062914652184
H            3.96211736823092       -1.95899242763645        0.74340785997214
H            3.11084209975070        2.36961223074484       -0.34374084087340
H            1.24682378879593        4.21058135503702       -0.63943007076449
H           -1.11943848343740        3.09085848368832       -0.40276264050380
H           -2.62415882687506        1.84667234370416        0.64920969239514
