28
 energy: -46.630992372011 gnorm: 0.000911670336 xtb: 6.6.1 (8d0f1dd)
N            4.73988126614544        0.53250149648606        0.17794110139944
C            3.60050748182616        0.47029470343916        0.02785870984438
C            2.20334131993446        0.39078418843293       -0.15688816466544
C            1.69299405719187        1.52421838231870       -0.85380669231371
C            0.48748136426540        2.15300130626818       -0.86873893370245
C           -0.74030451318862        1.93062999814875       -0.19722392273550
C           -1.65791585949367        2.93688476631449       -0.01708096929652
C           -2.81658358132079        2.42087823936391        0.62757494173776
C           -2.68851952656813        1.06878943041842        0.75625118360833
C           -1.40193051004971        0.67912961025518        0.25702656524039
C           -1.00843961209722       -0.61533646075062        0.07120312451619
C           -1.94825058742557       -1.74251681865735       -0.11538278400575
N           -3.28835199442326       -1.64252136387786       -0.24405230635284
N           -1.31975141123783       -2.88041991674162       -0.27654894381996
C            0.00505574190765       -2.61327950457527       -0.13234423166394
C            0.28505536523797       -1.26666334086562        0.01065769478471
C            1.60668103319588       -0.78275404927195        0.30387035226844
N            2.38002703345705       -1.64767192661731        1.00371022187602
H            2.48011068870414        2.05503999522289       -1.38221505574532
H            0.48149329176229        3.08721702303766       -1.42159574297007
H           -1.51236114605296        3.96763997210818       -0.28373313913124
H           -3.65068445614457        3.01524412626266        0.95617615150189
H           -3.36360373682810        0.41397264387897        1.27470716632175
H           -3.68952491150362       -0.73552787711597       -0.41700138949301
H           -3.74722287069832       -2.44764403935870       -0.63913448257550
H            0.70396562127637       -3.42800628071174       -0.20542299311609
H            2.00973160679503       -2.53603738546517        1.28877387012788
H            3.35503527922884       -1.44606835274248        1.15682171435948
