29
 energy: -50.368909114149 gnorm: 0.000756205633 xtb: 6.6.1 (8d0f1dd)
N           -3.27157614088306        2.54383966464503       -0.52069777201434
C           -2.63397492951032        1.59326450207112       -0.37560108687742
C           -2.04678842643777        0.34847647115740       -0.18242102371860
C           -2.90374512309955       -0.79095707836637        0.06286119904464
N           -4.24709451968373       -0.71219945629547        0.06298304881190
C           -2.10926843024951       -1.89822208257564        0.25519941660265
C           -0.74948099836825       -1.53478139061934        0.11124188476916
C            0.21011941756145       -2.50476378332138        0.01701855230943
C            1.60815673777804       -2.44156721121669       -0.27596172558990
N            2.10323778125965       -3.50428550055131       -0.96546573318843
N            2.51364133231192       -1.62353924928128        0.16999138274139
C            2.55902862412663       -0.38143309003330        0.57862291388713
C            1.77140324810710        0.69809112572921        0.25041608326844
C            2.25798928622255        2.04253862128205        0.26279022808234
N            3.49037571780801        2.47643282011065        0.63586110069640
N            1.34162270501506        2.91197936428239       -0.17245659928193
C            0.23083693137941        2.21152302254988       -0.41098351844273
C            0.37416127608954        0.83114337549664       -0.18707021807780
C           -0.71108183757848       -0.05228903425919       -0.11339842520845
H           -4.68370917757509        0.19061824202672       -0.01961469108657
H           -4.80200051284489       -1.49862956052675        0.34856794257381
H           -2.45571341853565       -2.89768485163910        0.44012849102009
H           -0.17303521746966       -3.51988854291592        0.04659335331224
H            3.07181556909363       -3.49079052974623       -1.23340877398235
H            1.48513335357707       -4.16412690769513       -1.40053672232895
H            3.47125183951713       -0.17046618382755        1.13607117554953
H            3.71000470205017        3.41989983240094        0.36222141806641
H            4.25223536394360        1.82232982578368        0.66610421329353
H           -0.64924470569665        2.72410030157260       -0.74858324806853
