28
 energy: -45.835906515713 gnorm: 0.000717355010 xtb: 6.6.1 (8d0f1dd)
N            4.19157704302465       -1.19037465111108        0.76154766181686
C            3.02873702265503       -0.60146799232068        0.38899552370694
C            2.87350394907627        0.80443839607225        0.18242680356018
C            1.58075162818291        1.05028328668109       -0.19037718149711
N            1.18140703765411        2.18467463273029       -0.76590689582096
C            0.03568872401873        2.76130900504670       -0.81624505745391
N           -0.99265462852775        2.72126055213447        0.01903682350898
C           -1.63993148908444        1.72358656000579        0.52298194839290
C           -1.62597639067501        0.36271842899747        0.17328152294355
C           -2.74375841313905       -0.47117776295360        0.35102742871770
N           -3.97426440523154       -0.09769438864858        0.81654617225007
C           -2.41483351597259       -1.78850069340626       -0.03367357094098
C           -1.08100753989351       -1.82728629223505       -0.37171080401093
N           -0.39946829189155       -2.93864182494622       -0.80312414297154
C           -0.50944176424843       -0.50376288491215       -0.23257894561407
C            0.84859175572494       -0.27297798544255       -0.16927032285433
C            1.83699281055299       -1.24578663511974        0.10097714768272
H            4.91718313986915       -0.61547937478763        1.15344011506482
H            4.17677375415213       -2.15957491271530        1.02938707709133
H            3.65350848029698        1.53490265210531        0.27788646558110
H           -0.04111844911022        3.56019618798035       -1.55509284989008
H           -2.40795169181205        2.02734993403867        1.23498411823322
H           -4.21158580147734        0.87904886231798        0.78441404469207
H           -4.73325791025360       -0.73541768741709        0.64438310748734
H           -3.09974960212006       -2.61732379493182       -0.05870018412759
H            0.39943161744487       -2.75638986693962       -1.39093872423286
H           -0.98412347062361       -3.69988285658753       -1.11330333433378
H            1.66206767640790       -2.29328602603544        0.25263439641844
