21
 energy: -35.777214119862 gnorm: 0.000656033175 xtb: 6.6.1 (8d0f1dd)
C           -0.63609512726075       -2.67168706161409        0.09435891373522
C            0.65492186272937       -2.50164434829291       -0.44054109930754
N            1.48871203955015       -1.55863751352949       -0.19943630907171
C            1.64291036794761       -0.32252940463460        0.09077731169501
N            2.79686204764846        0.17639120799952        0.54286522602537
C            2.72170872842871        1.50361704528109        0.37916643539010
C            1.50101477096531        1.95151258720603       -0.11662690971101
C            0.68687129064345        0.82225932808869       -0.22712726739713
C           -0.69023585900217        0.75063968256947       -0.23006534097173
C           -1.52030913495636        1.90392789442169       -0.34197390636358
N           -2.79699404762325        1.63005930334826       -0.17521895984652
C           -2.87990359079776        0.32110392959747        0.12028159226493
C           -1.64350531667282       -0.32996766742660        0.09311596848170
C           -1.57102148225300       -1.70523632229313        0.36728791923178
H           -0.95284207967390       -3.69963066952234        0.21378537289811
H            1.06665509939797       -3.32106145864172       -1.02649235092345
H            3.57071928029566        2.11144232391415        0.64097465631437
H            1.23405024579129        2.96848700911535       -0.32013136803524
H           -1.19355313963433        2.90267050487326       -0.56225300820345
H           -3.83683769346064       -0.12751785547971        0.31743372464940
H           -2.51725313566311       -2.09176121278031        0.73472143844542
