29
 energy: -51.152756063519 gnorm: 0.000789097690 xtb: 6.6.1 (8d0f1dd)
N           -4.17359150279029        2.76681989077118        0.17737987889610
C           -3.33343240770522        1.98201904757867        0.18888914130304
C           -2.30176644812418        1.01284067066205        0.20195663112726
C           -2.68537374858520       -0.14490742997061        0.88971526262320
C           -2.23994763983062       -1.44819057410464        0.89136684834595
C           -1.21066425423043       -2.10198837567966        0.21686019797075
N           -1.28661555775352       -3.42262974310206        0.09830313579994
C           -0.16344130091454       -3.84839507652500       -0.50647606568079
C            0.75871352492827       -2.83558876614329       -0.67911455876148
C            0.12889476989173       -1.64193351534948       -0.26638964416681
C            0.75148265401226       -0.41921911415558       -0.09784293946885
C            2.17523799572587       -0.28582031964073        0.03228682024516
N            3.07371177299805       -1.29423851834196        0.20385898263605
C            2.49588015730039        1.07465680591490       -0.00619368344214
C            3.77594991543844        1.60540484981402        0.15703293705434
N            4.84044262312609        2.01554876466815        0.30228264238854
C            1.30466278781778        1.80825072786620       -0.21344319009296
C            0.21712318562136        0.94950890873930       -0.20928615922503
C           -1.09900815891558        1.44051933780421       -0.42220085390797
N           -1.18625656986696        2.56681076040675       -1.16030505527130
H           -3.61565184757382       -0.00509581458577        1.43330371316615
H           -2.88134042196786       -2.14844332966585        1.41390050170048
H           -0.06663439313587       -4.88100205852442       -0.79173695308756
H            1.70448797975708       -2.91618803081337       -1.17751617241703
H            2.72207194025443       -2.17533736269022        0.54482734301050
H            3.98948153506062       -1.02305110480955        0.52734364730281
H            1.27655094662225        2.88232202136102       -0.25751158530193
H           -0.36083717993350        2.96233534592733       -1.57431250428463
H           -2.05605795432547        3.07048372658513       -1.22819220476318
