30
 energy: -55.697687413703 gnorm: 0.000518537002 xtb: 6.6.1 (8d0f1dd)
N           -2.26504038295227       -4.77403139755903        0.00822154240818
C           -1.86338240786957       -3.69936095912733        0.00527013625253
C           -1.36076975635557       -2.37085544418222        0.00161469288369
C            0.03013870900393       -2.32083703329768        0.00232884104821
C            1.00361669774760       -1.33397325836273       -0.00003266063232
C            2.34237551316839       -1.73396717546708        0.00190516058755
C            3.19194589161860       -0.62099618272360       -0.00114152526406
C            4.58916697409356       -0.62141339387839       -0.00134816256322
N            5.73787204831548       -0.57811238943931        0.00178774761726
C            2.39821239080132        0.54170132530742       -0.00487984478467
N            2.84898419511594        1.79397084952738       -0.00849749449260
C            1.00041345724080        0.15074130882090       -0.00445719771602
C            0.00967350174042        1.09875217039351       -0.00782226779795
N            0.37649269099339        2.41898027157787       -0.01155975517911
C           -0.72553332648663        3.15170599277942       -0.01432495454304
N           -0.70527651609893        4.48682987883673       -0.01818482577757
C           -1.89950497385976        2.33675601317087       -0.01262346523079
C           -1.48588040830802        1.02754740778544       -0.00853159866674
C           -2.43846646463436       -0.03227578205392       -0.00605819240645
C           -3.78061123560058        0.43478751068404       -0.00878940557309
N           -4.87402233156791        0.78423497433359       -0.00961415005733
C           -2.38376938642846       -1.41034281032352       -0.00195743046741
H            0.47023061273825       -3.31564384225781        0.00555051143146
H            2.67877576457369       -2.75496426395518        0.00498684181671
H            3.83832697220252        1.97520016295078       -0.00848388466317
H            2.12001597635039        2.51029275978826       -0.01096867341180
H            0.17213637458420        4.97656067119094       -0.01909993531260
H           -1.56401167501816        5.00711436029578       -0.02024873778564
H           -2.90607961316772        2.70511938715733       -0.01428031786190
H           -3.37184856004066       -1.86696508887252       -0.00131892325823
