32
 energy: -54.313701837576 gnorm: 0.000610696719 xtb: 6.6.1 (8d0f1dd)
N           -4.63142399597253       -0.77289494398864       -0.72382011534371
C           -3.50997494954607       -0.97483955934973       -0.56901970124234
C           -2.14911953194080       -1.26180450262422       -0.44323164956418
C           -1.58316898902893       -2.58001490976700       -0.60853996270833
C           -0.25053185622100       -2.50115937790080       -0.38636323418932
C            0.11171784644827       -1.11757668583647       -0.16716143330390
C            1.39398950081213       -0.67664430885266        0.06168007114050
C            2.45183701564497       -1.54460839229973        0.64481591084415
N            2.20671672074695       -2.74906875696522        1.21507324231284
C            3.64111845093952       -0.88899344800905        0.56585851764284
C            3.40520516422906        0.37425438370765       -0.06449189591274
N            4.38109665402826        1.27602480484451       -0.30679453249789
C            2.03427982178792        0.54321525657625       -0.30910191902399
C            1.53774617740251        1.63675287301251       -1.09966401388819
C            0.36939678097211        2.29324828514126       -1.07904686928495
C           -0.75217322259169        2.16220195788309       -0.16293842464121
N           -1.24301561239446        3.35509908881464        0.26781002301365
C           -1.38011034069721        1.00122946870356        0.21604681093958
C           -2.47098120677408        1.12561538709771        1.09861842822575
N           -3.31168698539250        1.25643092333690        1.87368712934614
C           -1.12678703669040       -0.35692239425542       -0.22064355694410
H           -2.15339255818502       -3.45219461634723       -0.87074786173934
H            0.45839750314920       -3.29687593377484       -0.52201787578115
H            2.92522447985279       -3.14651623417499        1.79646618414347
H            1.25354883383389       -2.98433965786981        1.43547010727869
H            4.59385967037112       -1.22763141169014        0.92652762735094
H            5.34019197476453        0.97846605110107       -0.26393706603205
H            4.16842253499368        2.09910407289034       -0.84369378254091
H            2.26845870687872        2.01698427435981       -1.81093901355017
H            0.25978623471731        3.13175395019632       -1.75801633689191
H           -2.03697036913502        3.37786749283044        0.88473657244618
H           -0.79318245880291        4.21433086551016        0.01212587469553
