37
 energy: -71.337038762798 gnorm: 0.000251724030 xtb: 6.6.1 (8d0f1dd)
N           -5.88056010284275       -0.18736321928459       -1.17804870056864
C           -4.78356638863102       -0.27464516486982       -0.84475618597776
C           -3.45077396346891       -0.35362495084094       -0.43930542514604
C           -2.79278831734563       -1.50385090126211        0.06463279271450
C           -1.45358595556220       -1.22757069447926        0.26373025447505
C           -0.59064387747078       -2.17162964493756        0.92509722405105
N           -1.18555644543493       -2.89072409830889        1.89949620964167
C            0.70980903505072       -2.51570686114373        0.56196816597677
C            1.24468767143853       -3.66238035260660        1.18039348437228
N            1.68018593491325       -4.59601316640401        1.69343023173292
C            1.54506689338674       -1.97754762649800       -0.47755256617298
N            2.27856938597404       -2.88531446333376       -1.15641322723674
C            1.77856342364949       -0.62235013487130       -0.73990282718985
C            2.78499083927431       -0.35644729820440       -1.69566464150700
N            3.55109475085254       -0.16855436620813       -2.53172542107606
C            1.27938005750866        0.54466079055838       -0.10035284049330
C            2.07324089834134        1.67725041513940        0.06615999663156
C            3.46005583563958        1.78989112914093       -0.06069620884176
N            4.59659871519694        1.95836802023664       -0.08959494524220
C            1.25836137751434        2.76280694330970        0.52727245673580
N            1.71342562623002        3.96901405389784        0.87626444549948
C           -0.07396338238115        2.31815298106446        0.54755700699378
C           -1.11285977619435        3.10286419869567        1.04291942626699
N           -1.92990599309615        3.80247784835739        1.45511070881064
C           -0.11213953145428        0.94019638265897        0.18512419363713
C           -1.24911325574494        0.18201716804435       -0.02028954435428
C           -2.53835241699688        0.70060507530869       -0.45181339369715
N           -2.77586303015429        1.90886098194294       -1.00685161494692
H           -3.27491123699696       -2.45430199068746        0.20905164337510
H           -2.14161849981724       -2.70434842206466        2.14540847898840
H           -0.70553588262898       -3.65999226530629        2.33789320034655
H            3.00864420568155       -2.57910027038325       -1.78021696415584
H            2.24620424550775       -3.85652588965130       -0.89386142921754
H            1.08270796617601        4.66976940245019        1.22787233863358
H            2.70102769055876        4.16097892390670        0.84780074236837
H           -2.17691563178390        2.69154142072100       -0.80898773833029
H           -3.73096434039865        2.11846478350002       -1.24905090194511
