28
 energy: -46.641482296869 gnorm: 0.000544954782 xtb: 6.6.1 (8d0f1dd)
N            5.07867269240010       -0.18554247181621       -0.68515842786761
C            3.99699313389630        0.15028011073009       -0.47896844678854
C            2.68816914004240        0.55482675273000       -0.23955136485966
C            2.24112492524514        1.85936837228795       -0.05178065396207
N            0.93436477912092        1.92768436063326        0.17799806338835
C            0.42582261152523        0.66327994739155        0.12915266921410
C           -0.94055794239628        0.49964274823590        0.16125623262276
C           -1.82021491359631        1.62173197921484        0.20534705818399
N           -1.43006338890293        2.88470985721536        0.41783306405358
C           -3.13905045847431        1.18701811116973       -0.01496838701899
C           -3.15316765878630       -0.18681656279955       -0.17186055608548
N           -4.28058332875446       -0.93373033356657       -0.36722322049590
C           -1.82292518450978       -0.70596553099514        0.00425395512467
C           -1.62368913226527       -2.04232009483222        0.13435613985168
C           -0.51164449976847       -2.89045725068925        0.38385797755043
C            0.83850564671753       -2.73199255671746        0.29719771927010
C            1.69426262631695       -1.65487404581903       -0.01901604297706
C            1.54734265910334       -0.29529030170263       -0.07588730486571
H            2.83693264015205        2.75589412591053       -0.07350038364061
H           -0.41125153697351        3.00514888004120        0.38979417501194
H           -2.07552484348344        3.63994058518676        0.26677816267841
H           -3.99905428684402        1.83095123592715       -0.06373244988549
H           -5.10862901567751       -0.42500217599564       -0.62949517338997
H           -4.18465413287941       -1.83855484439246       -0.79631638127655
H           -2.54277070873506       -2.61892217084132        0.07859617146689
H           -0.82019743814853       -3.90082352509668        0.63021818219964
H            1.39391396658319       -3.64697087400180        0.47838526607398
H            2.72325284239252       -1.96989426870833       -0.17129169867689
