29
 energy: -50.370046124051 gnorm: 0.000336231440 xtb: 6.6.1 (8d0f1dd)
N           -4.28861213649351       -1.41278487580645        0.13354905494080
C           -3.20348475737517       -1.04756381863275        0.02114051541152
C           -1.84187398803398       -0.70256106085015       -0.08766413830212
C           -0.93015514123511       -1.78219596985680        0.09850668817161
N           -1.38023617050928       -2.87087805518321        0.76674259828857
N            0.24654495889394       -1.90870684653030       -0.45961499390796
C            1.32179804408754       -1.21627505031267       -0.67541757443834
N            2.21910654652004       -1.78852114026001       -1.52679984567894
C            1.73872774036215       -0.05174570904710        0.03292093339374
C            3.05190757155640        0.22583517952506        0.40869820793313
N            4.15991907723097       -0.57431188832876        0.24211301699779
C            3.08952668093201        1.52156728758459        1.00225002907467
C            1.84231702129057        2.06742512284152        0.93476380700267
C            0.93986187610445        1.12597325995570        0.34116300225608
C           -0.35028616343624        1.46670057723030       -0.02649569820636
C           -0.83006744727465        2.79020751299451       -0.11157654299232
C           -2.14226063487610        2.71898331865731       -0.52773657864740
N           -2.59240518136136        1.45311068815469       -0.62179674499902
C           -1.57551651028153        0.64971627348150       -0.33137402432804
H           -2.35775241030235       -2.93691530279939        0.99825733279647
H           -0.82339534109843       -3.70782702527561        0.75705064402490
H            1.88480499547252       -2.54594857295275       -2.10021010569105
H            2.95020710953317       -1.20771707696057       -1.90083868041197
H            3.98072925723866       -1.56244888873287        0.14421927855946
H            4.93470126903504       -0.35472252133799        0.84954458291382
H            3.97347654504966        1.97686811964591        1.41079541586050
H            1.55411871132593        3.03322252421232        1.30163668294009
H           -0.25159478086792        3.68436647559165        0.00847841765262
H           -2.79752415878731        3.53570039809097       -0.77547293481493
