25
 energy: -47.505675708653 gnorm: 0.000611081437 xtb: 6.6.1 (8d0f1dd)
N            4.62466262407195       -2.16952189139524        0.20523472578351
C            3.62500142332057       -1.60195994922070        0.19179715953075
C            2.44054601507082       -0.86177455519771        0.15050057346327
C            1.15115498646071       -1.30716522554923        0.38537117812681
C            0.24697394046775       -0.22825328726669        0.26015116965144
C           -1.11832319298610       -0.46183754167996        0.21885325541797
N           -1.64022312203252       -1.68800088229580        0.12651018454379
C           -2.92447391686833       -1.49432492656716       -0.21918990642696
N           -3.75025106227540       -2.50722671282786       -0.46019512179818
N           -3.33715072025634       -0.20818958177592       -0.32952448956217
C           -2.28180590664133        0.50578546746108        0.02130125774725
N           -2.33287554332131        1.75220962943375        0.38151088017031
C           -1.43266623009108        2.65272963491917        0.60067772902186
N           -0.36332497125138        2.94190194441275       -0.10215970948364
C            0.63733745509005        2.23466040530063       -0.50966272640019
C            1.04285160317481        0.95142312694982       -0.11239016672111
C            2.38146807607610        0.52463993441554       -0.19646706787924
N            3.47384959608947        1.27958343779112       -0.45567371776631
H            0.85218617453053       -2.30966963539141        0.62242288987950
H           -3.42632509591037       -3.44925249975354       -0.33346858085345
H           -4.69375753278762       -2.31088546061139       -0.74269021887536
H           -1.70450737441366        3.40547498394872        1.33975197477794
H            1.31730665673027        2.78351399860396       -1.16024405423378
H            3.36594360936848        2.19496737084982       -0.85600609484408
H            4.35393764008317        0.81054663604615       -0.58925449916955
