31
 energy: -55.410017125377 gnorm: 0.000339222996 xtb: 6.6.1 (8d0f1dd)
N            4.46847530661636       -3.08819771855312       -0.45379591659962
C            3.51348253118330       -2.47113877809296       -0.29450467087921
C            2.34773131382273       -1.68531768315520       -0.10946955126101
C            1.19355602284359       -2.44744556460343        0.10330071780910
C           -0.14546796804096       -2.15949792121754        0.22982243128103
C           -0.94514096466193       -1.01866470616449        0.11789409701946
C           -2.33795736329720       -1.19788368866827        0.11691602766255
C           -3.03676843142756       -2.39845113645661        0.23203946703427
N           -3.66408709767323       -3.35880285934527        0.32583351673189
C           -2.98450086647300        0.05793682046165       -0.06785362243116
N           -4.30456509350138        0.24719105127551       -0.16382093474417
C           -1.98678549728073        1.04567397947465       -0.13386431438330
C           -2.36385322045428        2.36381460911537       -0.38791205346624
N           -2.82158326803892        3.39592703801233       -0.61842496229341
C           -0.69850930313124        0.44175887923303        0.00750703034131
C            0.45892789286519        1.19138572222995        0.11964981484974
C            0.40790433584702        2.59685180000520        0.27715775276237
C            1.67560621460838        3.12814365290920        0.30289839852590
C            2.60974986543118        2.09013601861511        0.13616453504027
N            3.95293543272344        2.28765361651162        0.15782404421595
C            1.91367820374387        0.85166204890322        0.05092550689301
C            2.62533495173954       -0.31331089098665       -0.11605109783538
H            1.40996436647716       -3.51041401734649        0.16078673780345
H           -0.75250237949339       -3.04739918261853        0.38480351115628
H           -4.93394381002420       -0.53611498372238       -0.12010829724365
H           -4.66915209313335        1.17132225742129       -0.32473959872088
H           -0.48890854309628        3.17120671775791        0.39469849768457
H            1.92344457811390        4.16595616064049        0.43046200926186
H            4.28180998928336        3.23312171777986        0.06455487638314
H            4.57803267910796        1.56479259869425       -0.15521913957989
H            3.69271546781707       -0.14133687870916       -0.23886843462099
