34
 energy: -63.361456099036 gnorm: 0.000821332420 xtb: 6.6.1 (8d0f1dd)
N           -5.59204743492226       -1.93962587118812       -0.96060556050359
C           -4.53129101110716       -1.62650570430706       -0.65098309250120
C           -3.26244133330882       -1.17763186902687       -0.27068533134193
C           -2.15387670480729       -1.91338987728196        0.02989473962292
C           -1.05134986224695       -1.01167548061051        0.26166161726858
C            0.21266252198744       -1.47354198694915        0.54132504423238
C            0.48622580277787       -2.76834067237810        1.09236099705779
C            1.82927897412097       -2.92569258648542        1.21083444333438
C            2.48139457444505       -1.77474886308423        0.63569067175215
C            3.86832937306968       -1.61460823684908        0.56915343186273
N            5.01101660228122       -1.49341622488251        0.57583365382435
C            1.51915262183512       -0.86023355510814        0.24552392210094
C            1.80770320672375        0.25509613389006       -0.60656189000831
C            2.87238117054851        0.02245956986838       -1.50671892495715
N            3.68741243613285       -0.15189137413215       -2.29777596347384
C            1.26720966733133        1.53126551815064       -0.63552330239966
N            1.77421931636464        2.43691266566894       -1.50903505429321
C            0.26955932352894        2.06584450019934        0.27520617441000
C            0.58200297208294        3.35858378794370        0.73954895011821
N            0.82868859908640        4.41470447278603        1.12382011701414
C           -0.96841313713041        1.56498111059496        0.62286154095884
N           -1.79521651360896        2.35078177767689        1.37123787929773
C           -1.57589890616708        0.33403410110955        0.16480833644914
C           -2.92655933585059        0.23321835685805       -0.13353190129179
N           -3.85314946495990        1.21653513706756       -0.26754526567751
H           -2.07247725708563       -2.98224355412564       -0.00582378525622
H           -0.26622682718724       -3.44167227844772        1.45534648783613
H            2.35249016281719       -3.75337142581498        1.65288997964885
H            2.60010293545831        2.20188248908759       -2.03755920952517
H            1.53740402922130        3.41016562435997       -1.41043939522922
H           -1.41521108095710        3.18220981490734        1.79604151197477
H           -2.59043815124725        1.92689663344324        1.81738613930175
H           -3.53622536834902        2.16521827332853       -0.38175250437994
H           -4.72996475667921        0.97246587223108       -0.69943164832669
