29
 energy: -51.167680012465 gnorm: 0.000870023061 xtb: 6.6.1 (8d0f1dd)
N            4.88877199834615        0.23834108953584        0.00889082470724
C            3.86402486399649       -0.28443841456081       -0.02964449716873
C            2.65716238066750       -0.98079243326339       -0.08857379264093
C            2.56208757677377       -2.31540129440827       -0.53123915259145
C            1.24478572787348       -2.74452451879767       -0.49640449721194
C            0.45425018844385       -1.69478384674005       -0.02268104184497
N           -0.74806015569720       -1.84853866085966        0.45212885841279
C           -1.83451118900733       -1.18240468390176        0.65827688662687
N           -2.69953726403303       -1.67334759506127        1.57247161091725
C           -2.27543115799997       -0.07316321488234       -0.15453593084014
C           -3.61300113886395       -0.14230540391997       -0.56945424096720
N           -4.71825087728577       -0.19975391657633       -0.88839009908479
C           -1.53146215428282        1.05685444718207       -0.49400327378655
N           -2.09597385562946        1.93827261811883       -1.34898592116241
C           -0.29956097381720        1.49236596340790        0.10788317543609
C           -0.08080247595428        2.83323104513180        0.36408071245907
C            1.23837524390878        3.01886635696289        0.85024600373549
C            1.88473845660094        1.81899503306345        0.81629203464628
C            0.96899195210875        0.80510801439717        0.38950989003766
C            1.34939406508163       -0.49878253909911        0.15139307968734
H            3.40597168108929       -2.90476901077998       -0.84501556963639
H            0.88607039831199       -3.72424761921488       -0.74359430643899
H           -3.64635619828256       -1.33554730216363        1.59968829733438
H           -2.48465236032819       -2.55053206492567        2.01582882763343
H           -3.02799572269321        1.78455709301204       -1.69681205310805
H           -1.63438304780319        2.80780700225176       -1.54701065508016
H           -0.81052421729921        3.61994793811810        0.28234640464963
H            1.64316789538675        3.95609978712418        1.18409263035794
H            2.89630018798770        1.62654937264920        1.11392921742077
