23
 energy: -39.234403132790 gnorm: 0.000861610791 xtb: 6.6.1 (8d0f1dd)
N            3.82882329874930        0.23776896550130       -0.20916369153735
C            2.61680287050729       -0.34798530951612       -0.02129084497806
C            2.44735953417672       -1.71729563784907        0.33407233353255
C            1.11641392511710       -1.96628126912394        0.48138499773386
C            0.36643166818032       -0.75964201562652        0.28457433243370
C           -1.00260590907245       -0.77568036378810        0.15740072816884
C           -1.82124523368750       -1.91283988211250       -0.03882892790179
C           -3.01267401468987       -1.45351807977840       -0.54822838505889
N           -3.09642610034625       -0.10038844431330       -0.62428917061061
C           -1.96493449300523        0.37138167584953       -0.14128799175480
N           -1.83215285041944        1.60433565166457        0.26599118473615
C           -0.83638183195297        2.37312280562547        0.53093768917977
N            0.31019657358971        2.48892245503516       -0.11093231505451
C            1.19500882717758        1.61424085300924       -0.44691694994010
C            1.36339597999259        0.28274610573733       -0.02391250888436
H            3.86569277696353        1.14436193410451       -0.64362324226032
H            4.61941517750029       -0.36583903108567       -0.35771817337428
H            3.25172176919761       -2.42206397301636        0.44420260968298
H            0.67552384267117       -2.91244852014593        0.72899545210071
H           -1.54563959989499       -2.93900969126862        0.09919741263607
H           -3.84780635421840       -2.04488790904597       -0.88224108133474
H           -1.03811924697602        3.17575733399150        1.23876604417218
H            1.99673728913952        2.03030936705213       -1.05757506418706
