29
 energy: -55.956436748625 gnorm: 0.000664236140 xtb: 6.6.1 (8d0f1dd)
N           -5.12827426547274       -0.57464782401177        0.20359790837209
C           -4.03639897532135       -0.24792603134678        0.05317440543207
C           -2.68814767160011        0.11561213355012       -0.11856043209047
C           -2.43984087403589        1.22667000847105       -0.95743829424613
N           -1.54470134331793        2.11764474251219       -0.76680078733401
C           -0.41558181100476        2.35821649624717       -0.19089518372476
N           -0.06329324836446        3.58209104711467        0.20875076506354
C            1.25860784011096        3.55646710254112        0.38687681056269
C            1.84282102705087        2.30625356916579        0.13117828041112
C            3.20430911106592        2.02373235024685        0.24036083483974
N            4.33179293414797        1.81710599785442        0.32791712318803
C            0.76600708919536        1.42907433395222       -0.14849879630302
C            0.74153795479838        0.05181004071168       -0.16213049436532
C            1.93754078205319       -0.71508920914873       -0.29650040989250
C            1.62061985969755       -2.04823184777438       -0.23312256587716
C            2.45840695214772       -3.15363837241560       -0.41376365141670
N            3.08580429993091       -4.10460038201873       -0.55969031511456
C            0.20807956498958       -2.17082811193349        0.03663811296289
N           -0.39165355672948       -3.39015322005584        0.19974407004913
C           -0.35574360005260       -0.89467928310645        0.07786487312857
C           -1.72342722826898       -0.71344854016761        0.48970159619531
N           -2.17641833710883       -1.60421065997575        1.39432485045968
H           -3.15590052165665        1.44679642757413       -1.74464291313621
H            1.77694816473553        4.44434085215351        0.70336083468828
H            2.91010276135270       -0.30207782341812       -0.48010341194216
H           -1.37492957758231       -3.46530881579675       -0.01180114820380
H            0.16357499887869       -4.18076332205921       -0.09425534368283
H           -1.54300677782181       -2.24456423756168        1.84110589436619
H           -3.14109561942198       -1.58336916430042        1.68429611170900
