29
 energy: -51.173185431090 gnorm: 0.000987459958 xtb: 6.6.1 (8d0f1dd)
N            3.04779842591553       -2.96851464774136        0.14948716290482
C            2.44826487777721       -1.98837898869352        0.16211339909877
C            1.80428447651574       -0.71703884229153        0.17636277665256
C            2.69908719533561        0.38231627383752        0.31735774143735
N            4.01485248393518        0.04477603450448        0.34872133472198
C            2.45241604071711        1.75120180466669        0.46440589406275
C            1.35074665875871        2.58027361866398        0.40249230221325
C           -0.00366185939300        2.46744568719508        0.13232185935492
C           -0.76968968843021        3.64616856028841        0.03591819870467
C           -2.07947164412061        3.32741685098567       -0.28477961474613
C           -2.18657948729568        1.94390934268978       -0.36969907643529
C           -0.93905319480837        1.35283252420752       -0.11408044274325
C           -0.77741727138255       -0.03259149236552       -0.06104869893661
C           -1.83025073947455       -0.95501756274984       -0.16904501323145
C           -3.20749149592245       -0.81857796952210       -0.29898513346741
N           -4.35513097893853       -0.85669307719229       -0.40070847476840
C           -1.24885984985281       -2.26178589484158       -0.08358475414761
N           -1.90966766780364       -3.41872357734492       -0.12886823088776
N            0.07138584691038       -2.19753369504881        0.05262456090674
C            0.42791934029767       -0.89706837400111        0.07785909449663
H            4.71475551580463        0.75157885434297        0.48510040878424
H            4.30093228454257       -0.91767209396033        0.29040606403000
H            3.37290233961047        2.29838217106789        0.64815569818131
H            1.62425109711876        3.61904305664951        0.56917927707045
H           -0.37833909569170        4.63819489746268        0.17184551880956
H           -2.88090548780669        4.02579065789737       -0.44088503927283
H           -3.08863602386729        1.41216764905095       -0.60122389807483
H           -1.39232633761701       -4.27698825652700       -0.05450387744847
H           -2.90968697233510       -3.42919039303113       -0.23069925126903
