30
 energy: -55.673592114880 gnorm: 0.000723955648 xtb: 6.6.1 (8d0f1dd)
N            0.55797419216336       -4.60138418175419       -1.20918496357893
C            0.26015045893948       -3.56869647185119       -0.80486830971257
C           -0.09871011627424       -2.29439782638232       -0.30385245304380
C           -1.39682573098465       -1.93370190778530       -0.49659459735677
C           -2.13101440337751       -0.79354087303186       -0.08807461083555
C           -3.51489823350012       -0.80520419923452        0.03073778137852
N           -4.04915268707283        0.39624990532301        0.35801265292321
C           -3.05582104766098        1.25521741411958        0.35102440029802
N           -3.20995525982029        2.53521087065799        0.70136382889929
C           -1.76086170979215        0.60067842262945        0.02978217439619
C           -0.61313077510227        1.26520255107146       -0.28500774314824
C           -0.56521398226319        2.62808050400741       -0.76806455451400
C            0.71994590016870        2.95757792059823       -1.02930394891691
C            1.57086810434639        1.86124224033029       -0.62124454171732
C            2.96518348082935        1.88626905248329       -0.72818511377928
N            4.10370100259880        1.93537997789421       -0.87367355306797
C            0.78283715222796        0.80622452530124       -0.20432923459985
C            1.32175982815302       -0.32919895527521        0.49418912712958
C            2.44703942894550       -0.00697656880943        1.28763110441486
N            3.31951281981531        0.23437146693246        1.99589023896339
C            0.96150834113228       -1.66428744703044        0.48130192652180
N            1.68236943694044       -2.54076718613477        1.22113053417401
H           -2.00913588951089       -2.68340299803313       -0.98955634914510
H           -4.16008078027421       -1.65783192108357       -0.08151805378079
H           -4.11590251902268        2.82135955632597        1.03308926884270
H           -2.41509557696086        3.13654988364670        0.82995183559687
H           -1.43065128887386        3.20196353193107       -1.04198640369301
H            1.08526220557366        3.86585964710017       -1.47197387123865
H            1.54019796485711       -3.53073970275726        1.10859835128779
H            2.51098007659916       -2.22540121748970        1.70015206680219
