27
 energy: -42.116461138933 gnorm: 0.000562043187 xtb: 6.6.1 (8d0f1dd)
N            3.65780104055612       -0.47555308060494       -0.19178985724989
C            2.34041665035815       -0.86003098296387       -0.22241283395076
C            1.92080515675563       -2.22611402710926       -0.40768995831451
C            0.57879894463347       -2.28739523608756       -0.25736958876357
C            0.05697152693843       -0.94623448075711       -0.06527020981525
C           -1.28179333316591       -0.70229514172787        0.11166062879273
C           -2.21635205791645       -1.73201481052332        0.45251840337555
C           -3.47151356725364       -1.20085962312005        0.49162574040279
C           -3.40789564648552        0.16524675255113        0.10513774138530
C           -2.09988574496719        0.52799955081940       -0.10638905724621
C           -1.74940016760255        1.76613537151417       -0.69963633972208
C           -0.56212431507953        2.43556945491340       -0.77481933479574
N            0.55549820396814        2.29650231237303       -0.06860232771633
C            1.25585091866998        1.31408006092578        0.36717835798194
N            2.29524653024003        1.65462651125494        1.20110894987711
C            1.21880158089380       -0.07277579571092       -0.04185558881375
H            4.30097900859948       -1.07510584582778       -0.68428234298535
H            3.83114355619560        0.51259623620141       -0.29622557845553
H            2.59334645951909       -3.04225581348527       -0.60249040096339
H           -0.03288272927568       -3.16179884663310       -0.36297312886257
H           -1.94701793626389       -2.73650954393355        0.71715489398169
H           -4.37327569053666       -1.71987027772056        0.76658424497344
H           -4.25770396341680        0.81530734218091        0.00099285084403
H           -2.59039892195388        2.27348845381300       -1.16008525263859
H           -0.54975042468918        3.35060785749320       -1.36269814924100
H            2.67827636374023        0.92953566329155        1.78401667567215
H            2.24362841603874        2.57738018407322        1.60304606134790
