32
 energy: -53.518796634879 gnorm: 0.000656062723 xtb: 6.6.1 (8d0f1dd)
N            2.74186048169899       -2.76640099375944       -0.76530269404307
C            2.38203046220958       -1.71523912324211       -0.44939717773601
C            2.05440333517604       -0.41865851003327       -0.09010662007657
C            3.03578190969631        0.63149561510862       -0.10669169854067
N            4.35281346117550        0.44871892530707       -0.31159970937164
N            2.50443095966984        1.81266444746936        0.14138415974564
C            1.15916303292211        1.63780522414996        0.27019919244452
C            0.43115972789260        2.75006848155197        0.59689105515500
C           -0.94352746157647        3.05097256887363        0.58468086883875
C           -2.02986804936698        2.42715425381153        0.06096178607059
C           -2.30533671403096        1.12580686995056       -0.47674068675435
N           -3.44902412998030        1.10494713204179       -1.24294657176843
C           -1.75582708243131       -0.09676189831810       -0.12425799047344
C           -2.51442371947556       -1.30748306990553       -0.14381827325722
N           -3.83953070529501       -1.46316285338469       -0.53493963152893
C           -1.75190636018325       -2.33035251826356        0.39507424686877
C           -0.46803155247905       -1.84903441806476        0.68104593089395
N            0.44782886409321       -2.57602342621681        1.39065982591169
C           -0.39880195120553       -0.47619180941993        0.33995606029722
C            0.81232404199908        0.19801390393271        0.14943185523985
H            4.92911064828028        1.26263285739372       -0.43493404544226
H            4.67880560911216       -0.43972268454231       -0.65133479650003
H            1.06765478268680        3.59417087725887        0.83610602243893
H           -1.15350593610030        4.04759655203237        0.95983752603001
H           -2.92464650716643        3.04461059255816        0.03511110866225
H           -3.56750941062459        0.31967147328382       -1.86253346410945
H           -3.78791176317000        1.99095402220745       -1.58053266293671
H           -4.22123207397193       -2.34577823418386       -0.22040303911090
H           -4.44069324645686       -0.68675547428033       -0.29137056819441
H           -2.09104641280877       -3.33446154954548        0.57579006306875
H            0.40559535149498       -3.57579616074460        1.27735353831463
H            1.38226442931604       -2.20877177492634        1.45862134056298
