31
 energy: -58.633420958832 gnorm: 0.000910915490 xtb: 6.6.1 (8d0f1dd)
N           -5.08065231488315       -0.94548420776553       -0.97289568499671
C           -3.99386975650072       -0.73619277212815       -0.65331918610577
C           -2.67263358262848       -0.50426828930266       -0.25304402221740
C           -2.10290381505202        0.71719008985603       -0.54350175733417
C           -0.91439892814912        1.33997402657605       -0.15408319735504
C           -0.81171131488290        2.75731215052132       -0.20903568659798
N           -1.76592476230164        3.64782405376253       -0.54071014514336
N            0.37956904357888        3.22170808294309        0.22342243613597
C            1.12636699570308        2.16107832488126        0.49161269096698
N            2.32949852416386        2.31595686496359        1.05506332325723
C            0.41937613283794        0.90381533659700        0.26091073716403
C            1.00927118100308       -0.33707588408122        0.21073181117818
C            2.35868855409655       -0.72575033385138       -0.02040076269712
C            3.54827497647941       -0.02563911311631       -0.10096333855648
N            4.59356680162142        0.46446104119829       -0.17375046039959
C            2.31184564966644       -2.10346897151307       -0.36059195114275
N            3.34769301289866       -2.85355765262595       -0.74400391524851
N            1.07336810016628       -2.63018705463069       -0.26222464953529
C            0.27740829882149       -1.64820946733325        0.13393415929450
N           -0.89394955397860       -1.90802062967262        0.63330841347491
C           -2.10038557846167       -1.47785963610491        0.66623877671475
N           -2.92994314291680       -1.98319057561708        1.60089893382726
H           -2.77644057420846        1.37096826893919       -1.09325532243038
H           -2.59060885604106        3.35744107963426       -1.03610652868032
H           -1.47259135509350        4.60627168688989       -0.61953083837054
H            2.99715607224813        1.56233150608975        1.07456058963749
H            2.68383436594309        3.25775468397967        1.08813686966846
H            3.18235498313539       -3.80974315486749       -1.00326759324126
H            4.27137092604184       -2.46076511218832       -0.79564694502927
H           -3.91891079375755       -1.81328722306631        1.53290881745266
H           -2.59830146104747       -2.72394151816850        2.19481726960967
