30
 energy: -54.890155861616 gnorm: 0.000387037825 xtb: 6.6.1 (8d0f1dd)
N            3.22819469887476       -2.38578912092349        1.48863843634495
C            2.32113161745460       -2.02885629172038        0.88118605507911
C            1.16264992105881       -1.60863622149003        0.19218545148464
C            0.19111111232579       -2.55894979143882        0.00828758466869
N           -0.84050297678580       -2.55138755671407       -0.82314365730793
C           -1.83643632202443       -1.78640238797089       -1.03597641273537
C           -2.21532809533216       -0.62188350053915       -0.31789500165290
C           -3.53203741675876       -0.15206054779806       -0.17513189377677
N           -4.67209470170128       -0.76649089891822       -0.54218207990843
N           -3.59228456709766        1.06537425295790        0.43649264494403
C           -2.34553642195953        1.45279495456009        0.60384568906088
N           -2.04655882628480        2.60263382006828        1.23230309588022
C           -1.37195644096089        0.45905929298733        0.12496922393962
C           -0.02727431344992        0.72233401409307       -0.04809950470829
C            0.51354658595250        2.03948727429904       -0.15192778196694
C            1.86671168401519        1.96303051496395       -0.35299244034651
N            2.76059006946833        2.96113630457456       -0.53801822647857
C            2.24919081939838        0.55823136231775       -0.29523167748352
C            3.57135054754083        0.14823026571403       -0.46759242155462
N            4.67884559695210       -0.08271742465097       -0.67599048185335
C            1.11341078158285       -0.20881506150124       -0.14396762351557
H            0.35804029116292       -3.53374175279645        0.46048208637144
H           -2.49583445849390       -2.10921478470063       -1.84044236518635
H           -4.66311680700841       -1.73057327154170       -0.82037206044125
H           -5.53757462638293       -0.34928181917092       -0.24883831455504
H           -2.81083708920913        3.07381124201220        1.68790691271767
H           -1.11640354861561        2.73176242713279        1.59324276293819
H           -0.06831214425693        2.93789549607968       -0.22973229629570
H            3.69596005931414        2.72109908582411       -0.82094249771660
H            2.43017145572091        3.88854279969035       -0.73915251994594
