27
 energy: -50.950161300326 gnorm: 0.000683049670 xtb: 6.6.1 (8d0f1dd)
N           -4.64002618210530        0.91423961251722        0.94159105927968
C           -3.62335533979019        0.46574007004450        0.63993962086322
C           -2.43136739884923       -0.14721330959486        0.27674279526226
C           -2.29718014353015       -1.53535297014539       -0.05928294400181
N           -3.28669758862198       -2.42956419972939       -0.03851551026052
N           -1.05222675228081       -1.87106984099650       -0.40584362562671
C           -0.29467082234245       -0.76701146748771       -0.28739208051862
C            1.08212457499352       -0.83694852858907       -0.30152150064569
C            1.76670016862910       -2.06526947968369       -0.55609118661418
N            3.05313872583057       -2.00064278976053       -0.31442684702208
C            3.29538283949804       -0.74624933826857        0.16085593004040
N            4.56380105064528       -0.38759432219335        0.45754685106425
C            2.13430858685588        0.05593306823089        0.17901327937728
C            2.10474955311075        1.35356973182046        0.70297101280019
N            1.30123588634043        2.34048260292864        0.47870747293091
C            0.17806957229925        2.38036534040561       -0.24602452393528
N            0.08574484304762        3.42335321671661       -1.10131655468274
N           -0.91986182185554        1.68619951872857       -0.07003187419890
C           -1.17489050269471        0.41581451113870        0.04342484107626
H           -3.09531811803726       -3.37693574978188       -0.31385142189398
H           -4.20449472554266       -2.16301284097477        0.27300176719578
H            1.30146379373765       -2.96533211176020       -0.90943495028207
H            4.72983574409664        0.42698356148734        1.02265513466216
H            5.23560743222232       -1.13499356033644        0.49578268452595
H            2.94053553246317        1.63091673703006        1.34539286771570
H            0.80345501033027        4.12635925330665       -1.08676912322768
H           -0.81379659394776        3.64392813974438       -1.49213483638632
