29
 energy: -55.177615399018 gnorm: 0.000788280028 xtb: 6.6.1 (8d0f1dd)
N           -3.31316752960083        3.38130210706147       -0.13226152713336
C           -2.47397381981987        2.59561462211561       -0.08812309296318
C           -1.47942917275887        1.58841079567890       -0.03756262883445
C           -2.08740397511237        0.32498204178466       -0.03539383119752
C           -1.69201300198749       -0.98601326401287        0.01230437380056
C           -2.64693574537226       -2.05916661938690        0.03815115117693
N           -3.98669404913224       -1.98201703490210        0.03194640235928
N           -2.05626811737829       -3.26829880315938        0.08244536559429
C           -0.74972268328190       -3.05509708563904        0.07950931168775
C           -0.40712524745193       -1.68558084430554        0.03881047910914
C            0.90756727507085       -1.26992224959701        0.00496658467660
N            1.90178967347606       -2.16237191861314       -0.00888870684183
C            3.02962196433972       -1.43624383849004       -0.04192446134410
N            4.23876915760691       -1.98592780502564       -0.07268093306799
N            2.85992836399927       -0.09689787394608       -0.04202761095549
C            1.54184482072220        0.09370292927676       -0.01347171212119
C            1.10456698124721        1.42020076898239        0.02109567250564
C            2.22837067695895        2.28859688840172        0.05661889541347
N            3.09906559493068        3.03810497319188        0.09728151685568
C           -0.15065091256508        2.08912589000045        0.01519342860258
N           -0.06222474956463        3.43836579392579        0.05585634240035
H           -3.17049344898796        0.43239583912762       -0.07174169737836
H           -4.47782583711271       -1.10842390850100       -0.01222043446714
H           -4.50236779223409       -2.84322433095374        0.04983320765816
H           -0.05080411274181       -3.86860205277508        0.10716808454239
H            4.32830299511007       -2.98600382059077       -0.07074441703935
H            5.04441954741703       -1.38650791983981       -0.09956160360805
H            0.83893181360020        3.88688786237553        0.08241967681073
H           -0.89432203157750        4.00498503701586        0.04606765555935
