29
 energy: -51.165650719111 gnorm: 0.000921408564 xtb: 6.6.1 (8d0f1dd)
N           -2.77497770491033       -3.52586421798698       -0.31908845230482
C           -1.78422970651167       -2.94839261072909       -0.21698366630538
C           -0.54138675304125       -2.33393064982891       -0.06487689651975
C            0.59265250240263       -3.04903319610070        0.30646713279419
C            1.66106811492379       -2.16663870017532        0.47462649265259
C            1.23013894895256       -0.86435553333253        0.25846611449925
C            2.15083475275302        0.19230417844991        0.09502228724876
C            3.49636904848356       -0.18891786548897       -0.06203709299357
N            4.60918341911991       -0.44897500236297       -0.20051609705467
C            1.92992176092101        1.59170345211080        0.02213551559557
N            2.87017937370109        2.35307512233569       -0.58929075209915
N            0.99069732498438        2.27514169688503        0.64618347827763
C           -0.28377584396184        2.20857876117376        0.80250575383557
C           -1.23778069153340        1.43608104006676        0.12564265854239
C           -2.55827571544748        1.85791218688246       -0.07943780866795
N           -3.08560978915347        3.07629454723785        0.20262578187361
C           -3.26415770599188        0.82976932648366       -0.77582938959953
C           -2.44544908296346       -0.24689102380316       -0.91133639496613
C           -1.15468173369471        0.04706631043073       -0.34432850921574
C           -0.22503468676724       -0.93090440117040       -0.07318999722124
H            0.62652906352937       -4.11394307506919        0.45213987835568
H            2.66584942784214       -2.44875640315050        0.72829554234426
H            3.74154353870430        1.93727967085204       -0.87301703041118
H            2.81730795141696        3.35188510410103       -0.48798760570417
H           -0.66209576531896        2.96642285801328        1.48930685139678
H           -2.60801024066648        3.67663562281615        0.85296692330574
H           -4.08485807516446        3.17694196542791        0.14413883160167
H           -4.28173210361112        0.90947859353881       -1.11097364294437
H           -2.69807974200047       -1.16984543300541       -1.39346932661026
