30
 energy: -50.084427988372 gnorm: 0.000599963185 xtb: 6.6.1 (8d0f1dd)
N            4.02966426648779       -1.49312848254380       -0.78482740468288
C            2.93836255170508       -1.29540171568788       -0.47173329106722
C            1.58668281376093       -1.08177032135699       -0.12456832280221
C            0.85063348616231       -2.25981522198847        0.05920335251229
N            1.56960383743477       -3.42218071410134       -0.01788152279995
C           -0.51461395857008       -2.48682158797114        0.37293836853795
C           -1.66957649571850       -1.75924924372458        0.33075594708955
C           -2.03715369462752       -0.44079182266222        0.03338473723303
C           -3.38974694275887       -0.08273670382360       -0.09152091159187
N           -4.48521709233500       -0.90225447183449       -0.02003771988776
C           -3.49000734723271        1.32606562200557       -0.26304867439169
C           -2.23698304649937        1.85698089476406       -0.23031730287331
C           -1.27579928098162        0.80645528482689       -0.06609424456308
C            0.05670022483411        1.12297152480719        0.03162748578118
N            0.38301321068193        2.44408869928972        0.08862760838276
C            1.70179031837492        2.52230732560015        0.14258948920902
N            2.34675344403291        3.69707653320382        0.22193963716747
C            2.31935809603930        1.23535674162056        0.09174456678977
C            1.30662908376182        0.30818662386386        0.03130515338214
H            1.09144323995102       -4.30457092444533       -0.03412939282388
H            2.53222064285148       -3.39787689017460       -0.30802207731411
H           -0.67997088492383       -3.52882324316857        0.63338370932334
H           -2.53674357573992       -2.36838573599866        0.57331067497827
H           -5.34983179211157       -0.51272017310965       -0.35809465885266
H           -4.35791668695325       -1.88173547436576       -0.21332962790469
H           -4.41578054606352        1.85801272407458       -0.39275728838378
H           -1.95805748822941        2.88700898375700       -0.32702127990707
H            3.34319686777510        3.72538130503251        0.33364822919725
H            1.80708579302052        4.53982432288473        0.30459212963816
H            3.37656466926756        1.05508083242854        0.11072173542208
