30
 energy: -54.907869308394 gnorm: 0.000612035386 xtb: 6.6.1 (8d0f1dd)
N            5.43277272246918       -0.47580793447507        0.68746012460907
C            4.33498910163560       -0.78191449723744        0.53126836644252
C            3.00390994890888       -1.15683908605986        0.35790540174756
C            2.48497977661890       -2.46396965544874        0.41380839791473
C            1.12351681361487       -2.45202010944501        0.15089613707039
C            0.69035851894317       -1.13104601843653       -0.01944164245581
C           -0.63363440085169       -0.71639829771666       -0.08208937109039
C           -1.69807416441755       -1.63730121119991       -0.30749354565517
C           -2.90116022660636       -0.98229254758124       -0.16976442987319
C           -4.18727827905763       -1.48820943686096       -0.36670618154411
N           -5.26682937788663       -1.85018497344840       -0.52725176927934
C           -2.63339372097127        0.37950624468852        0.21717680227891
N           -3.62453907593695        1.27970444679952        0.51184051302170
C           -1.25612333492392        0.56359327357595        0.24299246227837
C           -0.63301115709104        1.78397996217399        0.68551340811937
N           -1.28195685614625        2.49186038258246        1.64128310175801
N            0.38540371706772        2.37754085296420        0.13876511314504
C            1.32208012070198        1.92491323162608       -0.68077183948852
N            1.65001937450463        2.70459267248439       -1.73309313447211
N            2.12858723756335        0.91527041942245       -0.43045708722619
C            1.94573259862588       -0.28817191921532        0.01719419187748
H            3.07031604670834       -3.33870571286756        0.63776048634952
H            0.49093532654099       -3.31868710025410        0.16730200553484
H           -1.57613410676419       -2.66312420704499       -0.59529245253511
H           -4.54591691339743        1.02348368511077        0.18914928069770
H           -3.39677601324530        2.25728809898192        0.41580242712103
H           -1.96840829201425        2.02993811108340        2.21221703148097
H           -0.81671283072227        3.30447311673636        2.01026725890090
H            1.23077865741986        3.61427100207838       -1.81151208105604
H            2.52454331711362        2.52848912038393       -2.19724589377459
