32
 energy: -59.133035947896 gnorm: 0.000487038684 xtb: 6.6.1 (8d0f1dd)
N           -4.59717521307914       -2.17148036757218        1.19742321622175
C           -3.64612077374178       -1.67250251977878        0.78486959587731
C           -2.50774081554992       -1.05601033099987        0.24506734863615
C           -1.27433268582084       -1.48088440395408        0.62935163947588
C            0.02597222949316       -1.12178221907529        0.18594770255921
C            1.09075109797936       -2.03209252177417        0.32147768242917
N            1.03400246258005       -3.31162724014256        0.72369980075223
C            2.31120591865857       -1.41711946216406       -0.11942622863544
C            3.53729921216047       -2.07194561411232       -0.22008598197572
N            4.53915612665636       -2.63313988128850       -0.28737876786080
C            2.03390194301606       -0.10122452826285       -0.44924531534709
N            2.86069640117871        0.73266485389858       -1.08958854758964
C            0.60011916187580        0.14828224446111       -0.21240779436638
C            0.04932642033521        1.40511195368578       -0.17171680789138
C            0.71270434250883        2.63799211534006        0.21306645755917
C            2.03663150391095        2.82165462757067        0.59847567627879
N            3.12923870372096        3.01015548389140        0.91548125153573
C           -0.26357154526060        3.60318388955620        0.39746506388463
C           -1.52292936113865        3.09042851958781        0.03062300371770
C           -1.37882043637982        1.76670506152508       -0.31763054901951
N           -2.30476981672029        1.06540469276322       -0.98532556494896
C           -2.77330301446449       -0.11192449648457       -0.86357516352725
N           -3.61444488831365       -0.57966217129482       -1.81396510000046
H           -1.28630311950202       -2.29918658122361        1.34639115396472
H            0.18094767624372       -3.70681155944005        1.07810827296173
H            1.89176590414289       -3.82011275367704        0.85670421130288
H            2.62172931290445        1.70544207204024       -1.19174157062212
H            3.83760601028167        0.49110441658332       -1.14206167434912
H           -0.07851234370315        4.59520465368793        0.76960567839098
H           -2.44401308189104        3.63997091061651        0.02565824334903
H           -3.90706741337211        0.05392238195155       -2.53872400113914
H           -4.18370708240920       -1.38648823531611       -1.62328093682271
