29
 energy: -55.189649100335 gnorm: 0.000544254584 xtb: 6.6.1 (8d0f1dd)
N           -4.72364959849233        1.62253337342366        0.92655703957955
C           -3.63936939979033        1.40411466089060        0.62103918781160
C           -2.28920489884839        1.18274415721866        0.26425777863206
C           -1.43296835652971        2.26998502682809        0.45130691903734
N           -0.29074088541661        2.53276796487377       -0.09660910831989
C            0.76722354947000        1.95551475394954       -0.57775446918335
N            1.49717307229180        2.69420436837029       -1.44892945363673
C            1.33155795397213        0.72451954392805       -0.11955303272717
C            2.69154821409807        0.47507305085571        0.02584126019200
N            3.73457482259836        1.35541421791925       -0.10667980743727
C            2.86132479643856       -0.92270765608896        0.31998830412201
C            4.10276335387228       -1.51024333845045        0.57332422548632
N            5.14703622418079       -1.93989195008301        0.78949309600364
C            1.62214623754997       -1.52826735980242        0.28989501743994
C            0.63126947071087       -0.54160807919966        0.04901277417437
C           -0.69520636582599       -0.89996028000655       -0.14362712156122
N           -1.02470729079199       -2.19068404838576       -0.30462499688193
C           -2.35286965086040       -2.20434435610461       -0.44853159763329
N           -3.04722149099180       -3.31380412226976       -0.68624608329651
N           -2.96659027440450       -0.99783836285436       -0.33896611968791
C           -1.98832364317912       -0.13007549953929       -0.14443732736939
H           -1.83673411044633        3.10023506653982        1.02798978718482
H            2.26315504606960        2.26334874439278       -1.93618813641409
H            1.08204955624652        3.52617240479130       -1.83392144263054
H            3.52678206567760        2.33086695974415        0.04169991874821
H            4.60979781923079        1.04560826985858        0.28926612442546
H            1.40635046629547       -2.56635131272063        0.44703861759296
H           -2.57129437227534       -4.19674884773409       -0.72920377523689
H           -4.04643996244994       -3.25295795094490       -0.76643728771421
