25
 energy: -43.490978798459 gnorm: 0.000704501184 xtb: 6.6.1 (8d0f1dd)
N            4.46534533652612        0.42924720716596        0.76711118115295
C            3.46157277141951       -0.06743573553349        0.50586084774820
C            2.24835149603800       -0.67924760724301        0.19303255207579
C            2.04173463543655       -2.03610139795533       -0.09165337488817
C            0.70855919152599       -2.26619197657193       -0.41148702019223
C           -0.01784285905721       -1.07732751816947       -0.29222724469693
C           -1.40083567831681       -0.97380814441048       -0.22543583344841
C           -2.26570827238589       -2.07564134767911       -0.45402078984924
C           -3.53459538506380       -1.76459886128899       -0.01871054580699
C           -3.51451840877781       -0.47997859490658        0.54298268113385
C           -2.24346942831825        0.07233195828585        0.38888823075888
C           -1.95889362590750        1.37353253057938        0.82943562329770
N           -1.10669947091495        2.24530615154092        0.39329353307303
C           -0.05446890499271        2.10936330424770       -0.39887963211261
N            0.14229054039950        3.07251158362928       -1.32220736519607
N            0.94605879710036        1.26851939911068       -0.20961245104162
C            1.01932803472003       -0.00491774038345       -0.02076522600287
H            2.81225704318114       -2.78662798992674       -0.05744373023856
H            0.29545346129602       -3.23148396613779       -0.63240698330858
H           -1.96572883657435       -3.00525035319421       -0.89810636161571
H           -4.39779915946227       -2.40195802176577       -0.08234376272637
H           -4.35509165795594        0.02733051403449        0.98003657958265
H           -2.65605706066296        1.78572211486260        1.55571518212113
H            1.04799132150325        3.14735360047636       -1.75272991066103
H           -0.47343361615597        3.86696007493237       -1.33031188235890
