31
 energy: -53.829229368342 gnorm: 0.000518311324 xtb: 6.6.1 (8d0f1dd)
N            5.17493266516410       -1.28276485491754        0.14158406536555
C            4.10048408187284       -0.87248535781915        0.07359465739722
C            2.79389579700905       -0.40288596100261       -0.01560033936351
C            2.39263177401947        0.93021608838014       -0.28634654378161
C            1.01526682106349        1.01678743660327       -0.26976425504052
C            0.30846240330221        2.20420370595784       -0.65391708388012
N            0.90653832865225        2.97169899099427       -1.59665047572145
N           -0.76202000624788        2.71663977734804       -0.13237881785246
C           -1.76391839749655        2.30958580956613        0.62363217803915
N           -2.24789932487989        3.27904113931759        1.45355967296801
C           -2.48911508429813        1.11469700864260        0.55249930556064
C           -2.13481336206158       -0.16365159994134        0.14162269817712
C           -3.04736954616409       -1.21304345904181        0.08996733353338
C           -2.30937806707068       -2.39022512265774       -0.09119947697963
N           -2.79047925636649       -3.65077142366927       -0.17407412898024
N           -0.98623013755375       -2.16126413185856       -0.12412097838399
C           -0.80024050743785       -0.82589393466886       -0.02758809934708
C            0.48462423744572       -0.31688565892719       -0.02127323609546
C            1.63922034924675       -1.18361881353242        0.09483775865261
N            1.56469731529196       -2.50186612799790        0.34094130373387
H            3.07963295558717        1.74557485336295       -0.43197362574898
H            1.74612487750082        2.66045564248425       -2.04761480971018
H            0.47908326618783        3.83914687873613       -1.86725669265936
H           -3.15177534467060        3.17170187949204        1.87668345629582
H           -1.85554143802386        4.20095274595489        1.38360321889749
H           -3.50157283604265        1.18674074414527        0.93648230679658
H           -4.11388868618193       -1.14237524314601        0.17863539503999
H           -2.15489756185066       -4.37442728043625       -0.46257176186568
H           -3.77021693638762       -3.78648626723610       -0.34861307918241
H            2.40221448977143       -3.05717091358346        0.33780134753164
H            0.63189470211822       -2.89470699864968        0.22889194890514
