23
 energy: -44.826212272402 gnorm: 0.000649337821 xtb: 6.6.1 (8d0f1dd)
N            4.55783694923511        0.60692814403437       -1.00445688627559
C            3.53085930369426        0.19836377788772       -0.69519402415258
C            2.27409775201945       -0.30222690982264       -0.33793128714128
C            1.91648490398128       -1.64407624297299       -0.21035052896950
C            0.57166117813875       -1.76203627199330        0.18734308358534
C           -0.04509991249355       -2.99852275462828        0.40831380006231
N           -0.50134803936927       -4.03531836942298        0.59896867182976
C           -0.00089333490640       -0.47243867461993        0.25903892435287
C           -1.33845789173726       -0.13733915369681        0.20014232933915
C           -2.40746386664027       -1.09464039181840        0.20662007084583
N           -3.56494497122101       -0.56374709093381       -0.10849808502571
C           -3.34473319244835        0.73190140119472       -0.40620071223336
C           -2.01773497111418        1.10944398976216       -0.21165420672423
C           -1.55556862273995        2.41573895293293       -0.44792866806356
N           -0.61070130680861        3.04593655915096        0.16887019067126
C            0.40995305358037        2.62256244171854        0.85975462774191
N            1.24423614076246        1.69184922302438        0.50229304947263
C            1.16833639005006        0.48205794651482        0.08136675419170
H            2.57135097477609       -2.47771270818993       -0.39427544919681
H           -2.32206615939499       -2.13736151303554        0.44521069116576
H           -4.15720451008793        1.36603436785284       -0.70967277505367
H           -2.15814886559482        3.03245960662146       -1.10827762163467
H            0.72725400511721        3.24983837424222        1.68845352771229
