27
 energy: -48.506598954442 gnorm: 0.000644688103 xtb: 6.6.1 (8d0f1dd)
N           -1.96960541643999        4.44685087805914       -0.36685240288366
C           -1.59620271301326        3.36984198566098       -0.25088421312309
C           -1.12984838207282        2.03059076641666       -0.11199296637409
C            0.24561576225619        1.93096087041384       -0.20602748383414
C            1.18790903132886        0.90933593628060       -0.05536628596290
C            2.53011587424097        1.24699821373641       -0.00948585197030
C            3.30843189635299        0.07030486502284        0.14879798065313
C            4.70589060026688        0.03676617995341        0.27786487911439
N            5.84813927144319        0.01291411700514        0.37968412331829
C            2.46507813139934       -1.02077884761628        0.15288068392971
C            1.11474252615301       -0.57898583160393        0.02185763578992
C            0.08018921583403       -1.47729764925303       -0.09964153378551
C            0.32285691582410       -2.87489169163507       -0.27084680998346
C           -0.86599496027519       -3.54567858923578       -0.32883921020860
C           -1.92380203815453       -2.61950039602085       -0.15815385127035
C           -1.41294399723485       -1.34391942695497       -0.03754181645481
C           -2.28411658537846       -0.24837704294257        0.18452199781547
C           -3.62679720394672       -0.64372034811318        0.46452223224491
N           -4.71364787508822       -0.90912218948892        0.71178062115286
C           -2.17945657363244        1.12645707974605        0.14226846482175
H            0.72317307275365        2.89379136427297       -0.37196360085772
H            2.93101898341257        2.24230447965426       -0.06002767616532
H            2.78606013829449       -2.03592419084274        0.27528888765801
H            1.28845275344860       -3.32418348998765       -0.38792571893170
H           -0.99362737646569       -4.60175049973572       -0.48078624805325
H           -2.96568218075516       -2.87945316156724       -0.14441628725319
H           -3.12878972835154        1.63305047157566        0.30069138651367
