27
 energy: -51.746406898614 gnorm: 0.000586965311 xtb: 6.6.1 (8d0f1dd)
N           -5.54903047853137       -1.49344941882403        0.40194194491310
C           -4.45992461680877       -1.15018745500009        0.28134716970202
C           -3.14172797652773       -0.70334569379193        0.12517575697467
C           -2.78240056716741        0.62037568073011       -0.28650797378020
C           -1.41291847555524        0.73162272660533       -0.28166075662686
C           -0.71032838025521        1.90823689154681       -0.74823962405558
N           -1.26779523910901        2.57869583687534       -1.76868141903235
N            0.32470598346890        2.45563301495094       -0.18540717307560
C            1.24937007125516        1.97640802635896        0.62794028244620
N            1.63362977712790        2.75145120221379        1.65910986685188
N            2.00535865163770        0.92236901486937        0.37371322906985
C            1.73481032438291       -0.29044404276524        0.02408933046541
C            2.69250009673856       -1.29816650154632       -0.24588507238283
C            4.06217419317039       -1.12086464438837       -0.43897880093724
N            5.19032023466610       -0.97894947015396       -0.60534110541540
C            1.99285740638100       -2.50843061485223       -0.16426617964004
N            0.68560567139332       -2.36396434965462        0.05878078013516
C            0.42602308431313       -1.05267387374727        0.10432636206112
C           -0.87072591967819       -0.56938027663570        0.10357396845069
C           -1.98714536876125       -1.42868767765527        0.31361538271296
H           -3.49167344107718        1.39646348619034       -0.51268652090348
H           -2.11413459450857        2.24908836076948       -2.19611423190685
H           -0.84483362930035        3.43472402136509       -2.08416167648658
H            1.23412906047799        3.66777766860413        1.75975755018625
H            2.49208750713760        2.53119926384619        2.13393802945419
H            2.41478176131984       -3.49339205506630       -0.26603648336273
H           -1.90047612858981       -2.45769179254389        0.60109197028225
