28
 energy: -51.439721222038 gnorm: 0.000816925775 xtb: 6.6.1 (8d0f1dd)
N            4.78169493158981        0.31025349674389        0.38596070512433
C            3.64471773651542        0.19377371406298        0.26690343723011
C            2.24207562631092        0.02181976962770        0.13431050526296
C            1.90631261752289       -1.33291735195187        0.21623777335229
C            0.77291585841278       -2.09398986045763        0.05767998961566
C            0.87901558590434       -3.51306845475611       -0.00848854907005
N           -0.27896296055942       -4.09990328466360       -0.23522769429132
C           -1.20256038110825       -3.12469951147068       -0.28195452412673
C           -0.65791151818900       -1.84834193198123       -0.11416699570903
C           -1.43645684741457       -0.68458623528611       -0.02790091907291
C           -2.81321453936509       -0.66634122121924        0.00609782841570
C           -3.21029062796853        0.69293010134489        0.11469859086810
N           -4.45276896880689        1.16558219341546        0.20281175453754
N           -2.15486700592999        1.51798915403686        0.12627333618029
C           -1.04857585133167        0.76246706242901        0.03810992207519
C            0.13046517468653        1.49570925388295       -0.04696913012920
C           -0.18556935814618        2.88612280186778       -0.08827103284945
N           -0.36478384266493        4.01960954698548       -0.13308257605760
C            1.53183303603676        1.22881334398567       -0.08449051211961
N            2.30629381902095        2.31436636325346       -0.30838516276961
H            2.78746036930625       -1.94982869873498        0.38550268354531
H            1.78639971568071       -4.08385213308934        0.07349581359078
H           -2.23217960655767       -3.37918562464123       -0.44971643175163
H           -3.47994183373805       -1.50374031441982       -0.01528787781380
H           -4.58342268321349        2.15964221145749        0.28228295748483
H           -5.24649007426507        0.55085701243848        0.18657589381717
H            3.31007262652245        2.23431934344294       -0.28798639366314
H            1.89089148154932        3.22656786699892       -0.40669173267503
