30
 energy: -49.290229957100 gnorm: 0.000641302442 xtb: 6.6.1 (8d0f1dd)
N            4.42522337159571       -0.85688715487946        0.20581261666248
C            3.19438028396710       -0.31118221699101        0.14305545198579
N            2.96815072529038        0.96087999181057        0.49258021583227
C            1.64662000583045        1.14213071667488        0.31631113532688
C            1.14262701684958        2.41304590819379        0.48528427050942
C           -0.07566281058424        3.00326382743389        0.15667029183390
C           -1.30444229896748        2.55809455924824       -0.25600956857200
C           -1.98134597235906        1.30996652467788       -0.30672537626323
N           -3.31756081969621        1.46393114686206       -0.58775335324182
C           -1.55941158371420        0.00123057515504       -0.05197891271150
C           -2.47281078947920       -1.07007216734944        0.11440890428940
N           -3.84186821917533       -0.98054294990267        0.36178181010856
C           -1.81208538707010       -2.29138635597477       -0.01034708750986
C           -0.46600967540688       -2.05376722180695       -0.25899737851449
N            0.47917479375602       -2.98707769819528       -0.51275513007356
C           -0.22345702948127       -0.63921305984901       -0.18741465482808
C            1.06808790071592       -0.16950250707994       -0.10406670993729
N            2.12295641401107       -1.01884239839221       -0.23037570508810
H            4.58076447010524       -1.72764206707277       -0.26997248009305
H            5.19641712303376       -0.22455278467374        0.32663660078434
H            1.90572175571842        3.10367353430614        0.82460839367524
H           -0.02797325909454        4.08749905061204        0.21331836043314
H           -1.97386767113881        3.37430355147385       -0.51692715932537
H           -3.62381046658999        2.35991493236707       -0.92657672229076
H           -3.82866940694808        0.65798033731685       -0.90779670218821
H           -4.10127273076356       -0.22247204229877        0.97843491123081
H           -4.22929542305481       -1.86330835693366        0.66697778249025
H           -2.27357615656166       -3.25928216074907        0.07657882973625
H            0.29458032229362       -3.93124704862458       -0.21617602854988
H            1.42670140071793       -2.60612230455835       -0.44757463871541
