29
 energy: -55.967451494225 gnorm: 0.000934698579 xtb: 6.6.1 (8d0f1dd)
N           -5.37385346323620        1.30249555422578       -0.32971700560184
C           -4.29235273569219        0.96405642218061       -0.14730692668836
C           -2.96094932370441        0.55354121201933        0.06841196849321
C           -2.17997565025485        1.35287594269669        0.95172730406391
N           -0.92384738177340        1.52777296797547        0.88604177469267
C            0.16989350427602        1.14368641826178        0.30295752407695
C            1.17111868123018        2.00938282989659       -0.14377639898984
C            1.07403666218794        3.38350045859989       -0.35858594969902
N            1.04310184074278        4.51569942730243       -0.55631905090858
C            2.37554825639381        1.25707795725829       -0.28498513889794
N            3.54790038615318        1.76142118781833       -0.66965370972580
C            2.12184622653848       -0.09549715722170        0.04595039562792
C            3.15516129547925       -1.01951144114422       -0.03043135259855
N            4.08946656181591       -1.69434910649578       -0.09461931129909
C            0.72613782377962       -0.24714844763794        0.28928175599141
C           -0.07117694932427       -1.36500070029449        0.24239046406079
C            0.38117011086718       -2.75237455227160        0.30941529708802
N            1.51552115730514       -3.21809714279011        0.83624180036644
N           -0.56028958997395       -3.60589909118996       -0.09027469872411
C           -1.61394912040563       -2.87379627656293       -0.44958544973359
C           -1.46939455404906       -1.49923195313588       -0.20648785739018
C           -2.57292494590898       -0.67165874256667       -0.44397780835341
H           -2.69583846620494        1.91695622243743        1.72403528635628
H            4.36455741854769        1.17416622070510       -0.71340056841221
H            3.61968746874023        2.73155492075802       -0.92789938711435
H            1.66121591628630       -4.21225888822467        0.76756990129072
H            2.31174494142382       -2.62909133524563        1.01349078514270
H           -2.49295667351361       -3.35546930960917       -0.83900586175521
H           -3.35705214052564       -1.17914037624522       -0.99943359405974
