34
 energy: -63.363208185890 gnorm: 0.000391722583 xtb: 6.6.1 (8d0f1dd)
N            0.34341555262404        5.04444628769228       -1.10617528880846
C            0.26943983929956        3.96244432109191       -0.72934455544622
C            0.15744661363221        2.62610129658760       -0.27872077993811
C            1.26201116419689        2.19562107021545        0.53134475009183
C            1.81139471871733        0.96834672417373        0.68977932487822
C            2.89685157655049        0.87882609255532        1.59704585898493
N            3.73571128784784        0.79666885022253        2.37537783581020
C            1.52543493079635       -0.28526864245962        0.01259155906141
C            2.53025284106149       -1.15571548833846       -0.33200329597493
C            3.91210665243583       -0.94768660730195       -0.33519155460496
N            5.05400766674506       -0.85317361073704       -0.42205750430219
C            1.93254114068893       -2.40381509802301       -0.80773255801597
N            2.66798947033660       -3.43632533574497       -1.26828383537000
C            0.57706439019955       -2.30212635319139       -0.64638926413961
C            0.25385203924404       -0.98737035448674       -0.18545439334604
C           -1.03224779321829       -0.53100628681262        0.02094236826886
C           -2.14399410111811       -1.44654026037750        0.26360825481340
N           -2.03207555321524       -2.75188988538091        0.58571770543072
C           -3.32982523927812       -0.73368488715035        0.18732282642571
C           -4.61435319742784       -1.22917711561770        0.39793796110535
N           -5.67836516138340       -1.63212750667599        0.56979425401574
C           -3.00871126971322        0.63336428762867       -0.11919438320392
N           -3.95168699014140        1.57994513883622       -0.27010294409847
C           -1.61244403663323        0.78679204950866       -0.15828389495242
C           -1.04302896211966        2.02392351733550       -0.54065219374107
H            1.75858995056550        3.00734131761271        1.05541003962522
H            2.21254902717074       -4.22640608830476       -1.68961897788247
H            3.64931536604296       -3.29959857750217       -1.44233904753971
H           -0.13691870272701       -3.02591871817832       -0.98912828768445
H           -2.85521244483072       -3.22045244597913        0.92895741349276
H           -1.13499269201489       -3.10323624484815        0.87718848378082
H           -3.70705887544281        2.52851537436658       -0.49180369485028
H           -4.92162614693588        1.31606992319208       -0.27145923888843
H           -1.74052912885495        2.67088991989142       -1.06843623739835
