32
 energy: -54.312309128950 gnorm: 0.000931576997 xtb: 6.6.1 (8d0f1dd)
N           -5.26413630513384        1.03114773557183        1.27054671182029
C           -4.18613704127148        0.87234066414360        0.90464465344791
C           -2.89494081786259        0.61602207898098        0.43770623439355
C           -1.89852720738314        1.50694513657212        0.16034119858901
C           -0.71594849828002        0.77131327641976       -0.22311554547630
C            0.46870632692064        1.41251376606266       -0.49277730247718
C            0.55819573106716        2.79112399917896       -0.85906742606722
C            1.87323658355033        3.13478701715579       -0.95726152097217
C            2.67452656025728        2.01840915062151       -0.57085488648663
C            1.86660761505094        0.94169663775822       -0.32115757595712
C            2.35965400938072       -0.26085489402256        0.28978854688914
C            3.52251901658322       -0.04356326126374        1.05722965114621
N            4.45837706202236        0.10715953117017        1.71044681845321
C            1.97284033631663       -1.58737683881230        0.15408953993538
N            2.76937786428247       -2.54416541943522        0.71102783936141
C            0.92255322245842       -2.11950925248337       -0.66307132931065
C           -0.36301034118330       -1.73357022361503       -0.85247253715320
N           -1.18082884611369       -2.56900585359502       -1.60885409027963
C           -1.08013174522622       -0.62821311101725       -0.24767005859880
C           -2.40713865612164       -0.72186360427564        0.13485972081066
N           -3.16649499726940       -1.83202593414854        0.30624076127169
H           -1.93806321714814        2.56804983638997        0.31123105388782
H           -0.28298259269496        3.40772886903500       -1.11241273414260
H            2.26318455578157        4.08645129183714       -1.27092935203441
H            3.74630568116226        2.02936372726962       -0.49700090378165
H            2.46848987614338       -3.50071111332209        0.72540805333416
H            3.54403466680642       -2.27198279081854        1.29195083855985
H            1.19439803008982       -3.06520525881720       -1.12367782343796
H           -0.69486017011310       -3.24704874639315       -2.17691945832039
H           -1.93423989887787       -2.10714180049314       -2.09543619501620
H           -4.14435865818567       -1.73343796067180        0.51299030317312
H           -2.80865097530798       -2.72069018808272        0.00325430713915
