28
 energy: -51.448793310055 gnorm: 0.000721134064 xtb: 6.6.1 (8d0f1dd)
N           -5.06320905945688        0.74340281347906       -0.37410121902503
C           -3.99917811062467        0.33808128097203       -0.21695760325474
C           -2.70613224449463       -0.16159159500438       -0.03943044819264
C           -2.39762750189530       -1.51015004166738        0.28769526963128
C           -1.02835883321007       -1.64246333239780        0.30812131771009
C           -0.37099308401500       -2.79961809785851        0.72782704938308
N            0.14771311319994       -3.76655362760558        1.07797571654066
C           -0.42547307296656       -0.34614451600486        0.03366550994205
C            0.93309160269372       -0.12619852080873       -0.12433084531557
C            1.93337324595465       -1.14386140383712       -0.58685529346598
N            1.64034524513783       -2.27208376500119       -1.22247089121112
N            3.16237264906343       -0.69132130786096       -0.51480972748053
C            3.07330880328172        0.57106836974080       -0.00291625670849
N            4.18580039424201        1.26355740768213        0.25323347092622
C            1.73801748980991        1.00167532696878        0.14983849419544
C            1.32996376547430        2.20899958294476        0.83312638876756
N            0.34911668763540        2.95914794205136        0.58160360188730
C           -0.62165222629065        2.91350176148666       -0.35404816824700
C           -1.53396338404666        1.94319621563595       -0.57905601548848
C           -1.52743868216648        0.58242406737919       -0.13066257595323
H           -3.11615128259132       -2.27966081006608        0.50248967065563
H            2.41308745374718       -2.84809953068015       -1.51544166687211
H            0.72803040356950       -2.69149155840418       -1.14638049311533
H            4.14485658649194        2.20063487145706        0.61103004589414
H            5.07329403093147        0.81764512788251        0.10067037389209
H            1.94783689776999        2.51068896021430        1.67874294400335
H           -0.76319447029081        3.87769367880675       -0.83106167165666
H           -2.40760311615347        2.21403677419530       -1.15927834314163
