34
 energy: -56.960528932124 gnorm: 0.000936480692 xtb: 6.6.1 (8d0f1dd)
N           -4.80846741456918       -1.94793972022437        0.54705476725932
C           -3.79012405307496       -1.46257563264650        0.30701075541533
C           -2.56722312160052       -0.85684841943765        0.05009650525324
C           -2.37964632430914        0.51983639936671       -0.23093442549017
N           -3.44693999079475        1.40211236982591       -0.37567017772616
C           -1.00707820340904        0.78909290789413       -0.29856667843216
C           -0.50633586332612        2.07011035643146       -0.64890073910154
N           -1.37145251783377        2.83756541391174       -1.38241358903627
C            0.63362275356050        2.74668300625085       -0.21929281427372
C            1.75096123227222        2.42830202217311        0.55518332946353
N            2.41587995734573        3.51028579893774        1.06254294078390
C            2.41910985963417        1.20900365340757        0.76049883185241
C            2.24118940061234       -0.06644924137233        0.27749152495595
N            3.31299347873125       -0.88182953650396        0.30435530743434
C            2.92059629282658       -2.05814601549064       -0.20630853134951
N            3.79703475336392       -3.07617878868623       -0.35568390873049
C            1.54117325086644       -2.08914084853526       -0.49018154404126
C            1.04537184785947       -0.82339612506146       -0.19841439059053
C           -0.30963800787624       -0.48991490753352       -0.11392484363449
C           -1.30778576305059       -1.47742240606573        0.07949372496874
N           -1.12214529985056       -2.82053024583530        0.31752953278928
H           -3.27900062642646        2.32957002286076       -0.01029708676945
H           -4.31525773916130        1.00861690705299       -0.03590746239763
H           -1.04770573478153        3.71494413024499       -1.75134295681178
H           -2.11779338860757        2.37384705051327       -1.87148197431438
H            0.60127551592441        3.80401046561019       -0.47453018322271
H            3.23584828542484        3.37556302846190        1.62467567781811
H            2.01280174240958        4.42796486283630        1.01478799970236
H            3.37924194973924        1.31474034132858        1.25588242334237
H            3.54465595723384       -3.85198194943949       -0.94257822441554
H            4.77300295401134       -2.85404596062874       -0.25754682590549
H            1.02109941545642       -2.90252041999227       -0.95556358875531
H           -1.91458858207552       -3.27357312964315        0.75102684705597
H           -0.23057038542550       -3.05666554861138        0.73128169000375
