34
 energy: -57.757813830061 gnorm: 0.000967187881 xtb: 6.6.1 (8d0f1dd)
N           -3.23603829102692        2.89440774583343        0.93890735904930
C           -2.12545234438703        2.63527896295625        0.76649854126028
C           -0.78356430067796        2.33556149920859        0.54790257657217
C            0.27510876303887        3.17151337033753        0.85178492593663
C            1.47713844836329        2.46577826687599        0.63982058559911
C            1.19253490761017        1.15672347020605        0.31003456014838
C            2.21151243783343        0.23237045402175       -0.15739873185511
C            3.20336139637721        0.84069557539276       -0.94746599835603
N            4.01263928816994        1.31615231901246       -1.61442973624317
C            2.37753606327890       -1.09332445192493        0.15558114072471
N            3.51563243865671       -1.74158441215829       -0.23022960690533
C            1.52336636428925       -1.86936210044412        1.03548511352702
C            0.19090096393360       -2.02736231966799        0.97248002559879
N           -0.43362822727871       -2.95217158342346        1.81815388755932
C           -0.71962786956305       -1.43121342839422       -0.00322822144716
C           -1.76490902716101       -2.15942088046463       -0.60605458240132
N           -1.91106042685954       -3.49564408200624       -0.56763643670435
C           -2.63098333869254       -1.26713039048770       -1.30398745847035
C           -2.19461602241584        0.00596683816473       -1.08081769727563
N           -2.61268275343489        1.13274045295342       -1.68742680841913
C           -0.96476886730864       -0.06466072751740       -0.23368155270310
C           -0.24676903484263        1.03316298161430        0.20328315227437
H            0.19112066009165        4.18389151539073        1.20348806383504
H            2.46326377835131        2.88253094547579        0.73455855208308
H            3.55971612042075       -2.74226933337721       -0.15835642422314
H            4.13939341342160       -1.28438640789601       -0.87445052488500
H            2.06863958810301       -2.44874974232196        1.77305093158828
H            0.12757702100134       -3.22604428570519        2.61281579488110
H           -1.37428105714530       -2.69583211717263        2.08411657545025
H           -1.31125801384421       -4.02699325038269        0.04253585357750
H           -2.74943080541367       -3.91786155922751       -0.92519175477097
H           -3.46856494869013       -1.56503497979744       -1.90483011846147
H           -2.35086902837976        2.02369887288000       -1.29595957534685
H           -3.47853687721916        1.09936833754700       -2.19887193819776
