31
 energy: -55.396222353525 gnorm: 0.000823474823 xtb: 6.6.1 (8d0f1dd)
N            3.33023602402103        1.67180696702100        2.04631918684504
C            2.55243400791477        1.57326563479575        1.20893705777986
C            1.54862261219690        1.44041909448575        0.21715335051985
C            1.00448305105846        2.55426945753762       -0.29764087522998
C           -0.02722802701496        2.64554690232050       -1.31412119636742
C           -1.21824387869617        2.04440272438419       -1.31946352116900
C           -1.77481287740658        1.10742242236546       -0.35563894878176
C           -3.15789889896284        1.13486027815188        0.00356089672883
N           -4.02117508077740        2.08713628629009       -0.35388817824134
C           -3.47544823538617        0.00295997597035        0.79808893498103
C           -2.34608210927703       -0.76171446293251        0.89973224809904
N           -2.13541406081137       -1.81456959722961        1.69261249333602
C           -1.24651790834302       -0.08126592899028        0.13374535536462
C            0.02192632360473       -0.63688574765678       -0.06428967004744
C            0.31442541486142       -2.04389515034173       -0.28241381719663
C           -0.62055897937841       -3.06971096556860       -0.42937005764607
N           -1.38764635691679       -3.92117070257021       -0.54054787844066
C            1.66601453907485       -2.17938846383748       -0.51420691807988
C            2.26518990091181       -0.89532273124567       -0.37678948107292
C            3.63289186742123       -0.63412429156518       -0.51137517192350
N            4.75415620400840       -0.43292757203510       -0.65764144810953
C            1.26379042254229        0.04816663270665       -0.14542253295887
H            1.40231528258176        3.50919249911482        0.03027171927756
H            0.19110249710488        3.36163371875116       -2.09805350775343
H           -1.90165974677462        2.29763630722853       -2.12555594010025
H           -3.71265171910739        2.87414791530350       -0.89872017606832
H           -4.99292073220530        2.01533941899077       -0.10668659523281
H           -4.42886559949049       -0.19282623361503        1.24800986091906
H           -2.92029100829866       -2.24552022844050        2.15242547054108
H           -1.30265848330686       -2.37064279406325        1.57833976967330
H            2.18541646675164       -3.08653923922617       -0.76044133874521
