29
 energy: -56.765944411190 gnorm: 0.000846756491 xtb: 6.6.1 (8d0f1dd)
N            5.95661104525603        0.52820999244278       -0.62875638749233
C            4.87402969912646        0.23287091937428       -0.38795742362511
C            3.55801438900384       -0.15126252015943       -0.09705093657917
C            3.19117441762480       -1.31194912321246        0.63071388486030
C            1.81251405510015       -1.39911459561946        0.64847653934986
C            1.09077476337558       -2.43430869503991        1.28410096568206
N            0.03800091294338       -2.99444061866523        0.82456196530631
C           -0.93905799137722       -2.80347759610962       -0.00028422879155
C           -1.71314018512584       -1.64646925693497       -0.15176587514695
C           -2.99836236446924       -1.87849231799969       -0.70014565113693
N           -4.00057632790271       -2.11586901244905       -1.20424886690155
C           -1.35708946265199       -0.30735020062204        0.10205707723954
C           -2.30892329104624        0.71489113876131        0.13847539562724
C           -3.69541828466649        0.61869149676004        0.29462101353788
N           -4.82975344600450        0.65432694973184        0.47330498422976
C           -1.64556714305652        1.97549470029647        0.06449343325405
N           -2.23418648566197        3.16770247104750        0.11078023948731
C           -0.25605163061814        1.72554277617506       -0.04910758750433
C            0.64646302350175        2.79250802712150       -0.08738586901264
N            1.28470193312942        3.74878170115299       -0.10367631484780
C           -0.01364063856060        0.33758660486263        0.02345405463544
C            1.27602259793981       -0.20172926310559       -0.01661862246702
C            2.40286252531113        0.53588933595847       -0.44663613305955
H            3.87544985334687       -2.02351378011411        1.05337975062210
H            1.53477952180887       -2.91705857710307        2.15003977173011
H           -1.29825977869517       -3.70724256746346       -0.48510223321686
H           -1.68255063780723        4.00873100550267        0.05176358662083
H           -3.23346998757036        3.23567692026053        0.21865298939058
H            2.37785079664675        1.45846926814998       -0.99310514418957
