29
 energy: -50.382895993030 gnorm: 0.000864642802 xtb: 6.6.1 (8d0f1dd)
N            4.70234953154489        2.04095317852489        0.07141357373097
C            3.73381802838047        1.42273958667122        0.00131731430777
C            2.54876694879535        0.69495743951254       -0.08386708597753
C            2.42428445913060       -0.70403680305388       -0.07172942877618
C            1.08222019558181       -1.07513563368785       -0.12422661988529
C            0.71982818789332       -2.43523644375979       -0.27119313764629
N            1.71699942452450       -3.24964814716671       -0.71004655776632
C           -0.46145273339364       -3.14000076780866        0.04373563960602
C           -1.72851815845551       -2.82332297005570        0.47529976158529
C           -2.47848912813857       -1.66005794317783        0.59051709304986
C           -2.24789243049732       -0.33391997969797        0.28101821536898
N           -3.28960452953563        0.50913414981486        0.34962802480438
C           -2.79529848116944        1.70873005488340        0.01744499627619
N           -3.56049143063971        2.80710627568018       -0.01771197047200
N           -1.48004016888276        1.74484421075252       -0.24567174820416
C           -1.04642527153898        0.47359887597553       -0.09449191062002
C            0.30299578602622        0.18082140231133       -0.15544525440222
C            1.26092557242213        1.24840379380193       -0.20113601341319
N            0.97149492340671        2.55324999244185       -0.33018243105712
H            3.27278592089281       -1.35611382811595        0.03819830701522
H            1.57397760552510       -4.24144192068163       -0.77303300790784
H            2.58728758468887       -2.86754413353084       -1.02783069050740
H           -0.31086117601894       -4.21310755716369       -0.04214539019072
H           -2.30640499291567       -3.70621844265512        0.73201189778606
H           -3.49921360024692       -1.81119060616200        0.92207735499843
H           -3.18040458198051        3.66403370223591       -0.37528690097389
H           -4.55122965665366        2.70048012616891        0.10198528692344
H            1.68337800014123        3.23632175851076       -0.13533450480327
H           -0.02408927898799        2.76792640473146       -0.29539054115045
