31
 energy: -54.619941864503 gnorm: 0.000597652538 xtb: 6.6.1 (8d0f1dd)
N            3.65816810293733        3.79380493624777        0.09899665307853
C            2.81633856304741        3.01109656414000        0.08036675382837
C            1.80123773717511        2.02658282184332        0.05061358967904
C            0.51149832860497        2.56042755559619        0.04492455234994
C           -0.75948054794877        2.03070593108558        0.00352401469276
C           -1.30166334396245        0.74540401525905       -0.01085967967137
C           -2.69275853035778        0.58658376241981       -0.04510833892039
C           -3.68893165162028        1.55172855466861       -0.09478455694850
N           -4.56000671333382        2.30471232546280       -0.13976653763655
C           -2.95372542536026       -0.82431125046769       -0.00922584829653
N           -4.17238800587694       -1.37857962599170       -0.02707953017726
N           -1.83881571116878       -1.52409995388686        0.04380797967082
C           -0.77307039107157       -0.64870349075416        0.03334472403215
C            0.49174455763684       -1.17089285957761        0.04790055056591
C            0.71098841290433       -2.60145436955712        0.07672255711755
N           -0.25910487274105       -3.51723830494137        0.16208035443658
C            2.07519361455798       -2.86025534479257        0.01372301310447
C            2.77318019299764       -1.65376292923924       -0.04201015807422
N            4.12667792828475       -1.57925704748887       -0.07347952701720
C            1.85428039571989       -0.55968518431932       -0.00238777456773
C            2.33287442748844        0.72194380164360        0.01315315236687
H            0.51870731316582        3.64685777367928        0.06716795684410
H           -1.53782441748717        2.78827307267203       -0.01391074685226
H           -4.27332535247023       -2.37669469435350        0.01040624122177
H           -4.98740992383322       -0.79232485783072       -0.06298699895458
H           -1.20547919148390       -3.13302525074060        0.12897215817107
H           -0.03887200035341       -4.49472536278129        0.09935846309192
H            2.52302956657899       -3.83755306370874        0.00908111833414
H            4.63688643592828       -2.42647811065454       -0.25105016032832
H            4.58310113981801       -0.71784732395395       -0.31740650902365
H            3.41989408652357        0.76504038952303        0.00502331728346
