30
 energy: -54.894535356133 gnorm: 0.000721489909 xtb: 6.6.1 (8d0f1dd)
N            3.10783637506056       -2.35221360095871        1.51262972257974
C            2.17239892053278       -1.96952531893614        0.96778513826519
C            0.97411205818599       -1.52103151815631        0.36734747265782
C           -0.04938862238780       -2.46059078604666        0.36353286353888
N           -1.13655953796903       -2.50796419800717       -0.35835372565372
C           -2.03507964522890       -1.67822703745424       -0.77812266309335
N           -2.80924117551857       -2.06411091410945       -1.81145806387810
C           -2.36786512772541       -0.43363110061781       -0.13498686019466
C           -3.63894956593248        0.05232891611745        0.09556705871937
N           -3.63789397573424        1.30157824202448        0.62345631616210
C           -2.38005578450789        1.69122909110097        0.65305752923593
N           -2.02352048880365        2.90559558236247        1.14484961052108
C           -1.46665481460675        0.65087555437393        0.18307551306268
C           -0.11898140437803        0.83113446639375       -0.06451563262003
C            0.47798644004684        2.09105581968186       -0.28362845222544
C            1.82861445507743        1.92610649135706       -0.52106831076763
N            2.74323295791800        2.85607634701825       -0.84084402732092
C            2.14744553700084        0.52170354710160       -0.35805052599318
C            3.44405347732981        0.04193343594815       -0.54158091650178
N            4.53542814038665       -0.24270081338028       -0.76883403204418
C            0.98077598682633       -0.17574698380323       -0.09603290594275
H            0.14535354438914       -3.38228687625580        0.90736344634316
H           -2.67172975510672       -2.97129803879807       -2.22243825277220
H           -3.61916483253546       -1.52395294103251       -2.05627890678771
H           -4.57252042725382       -0.46329247111271       -0.04292317270647
H           -2.75428919479843        3.37608180196186        1.65605104530519
H           -1.08702470276024        3.00578825852881        1.50202041320651
H           -0.05916923646789        3.01240637625040       -0.40120099795325
H            3.68470540465891        2.57105096579082       -1.05167517950887
H            2.46717033770186        3.80625595945725       -1.01236262693315
