30
 energy: -55.687527298598 gnorm: 0.000786846966 xtb: 6.6.1 (8d0f1dd)
N            5.43237634039831       -1.20313761197535        0.06519378265335
C            4.32477995185206       -0.91712878606878       -0.03530535510250
C            2.96512613992152       -0.56333674851412       -0.15294885544103
C            2.16132835303259       -1.40982379079402       -0.93951797108129
N            0.90624766339248       -1.62555680924726       -0.78189534867415
C           -0.17334675391485       -1.15884051207754       -0.24983158458363
C           -1.22542002374830       -1.97813804466652        0.20006334329980
C           -1.18265568844363       -3.34752808817728        0.45578636699132
N           -1.20167275879524       -4.47368477056324        0.68757750851077
C           -2.39240213946075       -1.18256865826768        0.29749761089374
N           -3.59607428808205       -1.61589963049464        0.67580474215169
C           -2.07766796386228        0.15630635948556       -0.07025555490829
C           -3.06438011410589        1.13014355322362        0.01750660748596
N           -3.95928240102937        1.85307052179010        0.11125657044461
C           -0.68177324322471        0.25101918724257       -0.30170587837529
C            0.12475155427796        1.37217990156879       -0.32669478928382
C           -0.35868430850764        2.71841346600106       -0.46142753769662
N           -1.44609358099657        3.11391885336773       -1.15316944698222
C            0.57801443988972        3.59446588078487        0.10315942825423
C            1.65134916300570        2.85793057475578        0.56079806539580
C            1.50232501923147        1.49371951451630        0.22646655305955
C            2.58587805667303        0.65614398208107        0.42057868088280
H            2.64759085336930       -2.05327895308138       -1.66758223436940
H           -4.37936757000243       -0.98401894810818        0.69944106851200
H           -3.71899239367426       -2.57199951575409        0.96445483307891
H           -1.77361504767291        4.05650709904851       -1.02398233193868
H           -2.12957458604268        2.44238434673486       -1.45756923231845
H            0.47528862827322        4.66275286316321        0.14350679102970
H            2.52393602528748        3.26380384911693        1.03965106672922
H            3.39474830574947        1.13612177501035        0.96499465746809
