34
 energy: -62.572666993586 gnorm: 0.000740183243 xtb: 6.6.1 (8d0f1dd)
N            5.02706534677156        1.24286067746212        0.45019493728352
C            3.94037865121078        0.89729527357047        0.29169800797122
C            2.59502456276026        0.50485855546166        0.12033475663808
C            1.72344598828438        1.59234002089470        0.32865847114650
C            0.41610787256702        1.87424747745206        0.05677621321373
C           -0.05154635116025        3.23298911283979        0.05488227136192
N            0.60709348492985        4.31643641994136        0.52442702841844
C           -1.31053533783903        3.28028356649226       -0.53811437291190
C           -1.73372945714445        1.98230913131061       -0.82485207804559
N           -2.81879367066923        1.69014978330170       -1.57533582894343
C           -0.74183771550058        1.05322571562684       -0.36577711012586
C           -1.00556727164676       -0.26359436035928       -0.04848155655546
C           -2.29102865084302       -0.83136067901548        0.16342139544340
C           -3.53591007894968       -0.23967334835150        0.30546195271664
N           -4.60515656738494        0.17523447877201        0.43733582903939
C           -2.08103684684477       -2.19975081775348        0.47947143665842
N           -3.01463914325551       -3.09301358242035        0.81917701034776
N           -0.78777884794825       -2.53481575360759        0.39639866011556
C           -0.08928481476311       -1.43224257137481        0.10405412825394
C            1.25727108876060       -1.65377834793009       -0.19707699101326
C            1.50577614768375       -3.03887354108682       -0.37006874424074
N            1.76197003524955       -4.14509792567354       -0.55084772156770
C            2.42181901016101       -0.83870726582411       -0.27565568969224
N            3.54188157458549       -1.47487028726274       -0.69324241878118
H            2.28708303231571        2.45863321678720        0.66877959732414
H            1.57159641004510        4.25347722246483        0.79772767321004
H            0.24969533200567        5.22761760586494        0.29871450420714
H           -1.86856198949679        4.17422291602909       -0.74688974304162
H           -3.53761930923882        2.38970093146063       -1.65405276337963
H           -3.12882548207399        0.73577475643309       -1.64186278439093
H           -2.71950920776644       -4.01777745845753        1.07896870371480
H           -3.97317976842353       -2.81297921733966        0.93185875612512
H            3.52388436586386       -2.46843989541616       -0.85685484687481
H            4.43106511114612       -1.00420134869861       -0.65007441212642
