29
 energy: -50.361932129905 gnorm: 0.000538093909 xtb: 6.6.1 (8d0f1dd)
N            4.67821917040677       -1.52330474516720        0.66224127395972
C            3.73836015563112       -0.89278736243928        0.44649609199674
C            2.64577644231053       -0.06749778096145        0.21036951516592
C            2.69369108770201        1.35220605673866        0.22343743969105
N            3.79102039484993        2.07220658699428        0.49424089979315
C            1.41321480774773        1.86245121377837       -0.06402599333546
C            0.52156964466860        0.81279369729921       -0.21469821312687
C           -0.86808017469321        0.91034979171286       -0.24231464116812
C           -1.53150926151811        2.14917958832786       -0.40464752319059
N           -2.84276193338830        2.05110255340511       -0.27984164264664
C           -3.10350269510742        0.77033523414887        0.04757725278846
N           -4.42269288907104        0.39626071588116        0.27314552861210
C           -1.94084362029921       -0.02875616925571        0.08280596885322
C           -1.97649353193254       -1.40239671610780        0.43923230947490
N           -3.03826657015698       -1.78814303098558        1.18803339873390
C           -1.20061651062766       -2.45014817873017       -0.08896393382854
C            0.01725136833113       -2.42069944248755       -0.74035751259918
N            1.03971498865771       -1.63904488841396       -0.55124398080120
C            1.33744814163657       -0.45101848903030       -0.15434693328424
H            3.77581687640686        3.07449525465603        0.43097242828742
H            4.65513100229580        1.60420917478792        0.70829505079913
H            1.17130497969531        2.90777607133275       -0.07963311710339
H           -1.08031582572960        3.08811285222310       -0.66352592235797
H           -4.69525014232858       -0.46915151437549       -0.17586398110280
H           -5.03979261619822        1.15844892720322        0.02098087218702
H           -3.63796956505134       -1.09192187092419        1.59765044365526
H           -3.12376841316382       -2.74575989218693        1.47953038764137
H           -1.66942131362235       -3.42621470105437       -0.02639231260398
H            0.25956863905275       -3.27689568337956       -1.36745152479504
