22
 energy: -40.306732881774 gnorm: 0.000610839269 xtb: 6.6.1 (8d0f1dd)
N           -4.53577218153606        0.45941933130970        0.91372103853800
C           -3.52107788766421        0.00825252387123        0.61927439570964
C           -2.28769083675641       -0.55128746535897        0.27731567801260
C           -2.00392741375984       -1.92363928402298        0.13703692543268
C           -0.68180413297656       -2.11360357842850       -0.23868060114884
C           -0.03221862916123       -0.87538457861134       -0.29171773069495
C            1.33216577693072       -0.65971869477494       -0.25326201731373
C            2.30226627838267       -1.70938788151623       -0.33824978620548
N            3.51621846708882       -1.30710581791485       -0.04115277309473
C            3.42567014127830       -0.01257183774537        0.32649662032084
C            2.13480396259206        0.49203683320501        0.19320250372749
C            1.77603932403196        1.81188948996521        0.52602962534205
N            0.87100290848225        2.54800740783726       -0.02440861237551
C           -0.18687874576625        2.27228907880239       -0.73872573639593
N           -1.10930521409636        1.40027971346486       -0.46357188923363
C           -1.13180205714228        0.16542411594942       -0.09381626967456
H           -2.72106078597281       -2.70686792990515        0.31018045894239
H           -0.21663493256913       -3.06847791773212       -0.38872032503411
H            2.11527254935654       -2.72355331099089       -0.63638010502906
H            4.30183187304446        0.52799802779737        0.63363680689613
H            2.42935910390852        2.33593784016952        1.21808462971730
H           -0.44007066909195        2.99657620803246       -1.50895925234142
