28
 energy: -51.456008380598 gnorm: 0.000706737496 xtb: 6.6.1 (8d0f1dd)
N           -4.11507344792490       -2.43685850875821       -0.07365178137077
C           -3.25925298057152       -1.66774132401667       -0.05365679638709
C           -2.25096489251150       -0.70642705967747       -0.03288204754813
C           -0.86839607848874       -0.94505977921348        0.13081470038410
C           -0.41219773186675       -2.20125970404811        0.49418718271586
C            0.87844963042255       -2.71122554481740        0.65253432579772
N            1.98587532344568       -2.37652450808667        0.07470111865952
C            2.53738865366917       -1.32772920326544       -0.46421687743398
N            3.45003180459275       -1.53397254482122       -1.42979067071223
C            2.37583758176240        0.00230518584860        0.03287398704746
C            3.38909183736898        0.92227314586150        0.23487812292201
N            2.91219395195551        2.12311177377940        0.63474119835768
C            1.60215138020027        2.03774363742537        0.61915236831111
C            1.14103440541384        0.72778645453336        0.28180363845713
C           -0.19655084869166        0.38809477847182        0.09570101213257
C           -1.21782730062284        1.34039931487924       -0.07449604361272
C           -1.13814261555918        2.72566626718162       -0.22246787174326
N           -1.21203143695036        3.86374062467407       -0.37647607313258
C           -2.47433940232368        0.68170987026607       -0.17615132844258
N           -3.65090643693053        1.27976741722958       -0.37669530147919
H           -1.20200357110320       -2.90508013695389        0.73553091946005
H            0.96308889017836       -3.62336369718846        1.23873046689566
H            3.67288178679022       -2.47239086319996       -1.71558010674044
H            4.02143760507474       -0.76974542020147       -1.74287791508287
H            4.44952063590418        0.75686781401997        0.16655503166126
H            0.99418184645230        2.87336155480787        0.90781016322085
H           -3.69588839925453        2.28144192172449       -0.46662601075364
H           -4.49443229233172        0.73541488644579       -0.44170753558339
