27
 energy: -47.713739396217 gnorm: 0.000621100522 xtb: 6.6.1 (8d0f1dd)
N            2.87358774705281       -4.06583048144236       -0.00101573652228
C            2.44791491405759       -2.99958796096112       -0.00037954887206
C            1.90538468553253       -1.68813559848021        0.00100878158586
C            2.92009291189481       -0.69193991206805        0.01756318619309
C            2.93983460729988        0.66862180467679        0.01582334932462
C            1.95964077793468        1.68730565439699        0.00215806496844
C            2.31130704401346        3.01885446245305       -0.00539991815610
C            1.10357148228652        3.76942566869753       -0.00981132295996
N            0.04236523126602        3.01384486623985       -0.00395840822485
C            0.47335662272756        1.70074338833029        0.00128835303680
C           -0.49896192629180        0.73924962145878        0.00243666204395
C           -1.87119052912887        1.15170080592815        0.00593054296187
C           -2.67372209607083        0.04230235349988       -0.00313843891808
C           -4.07382461022883       -0.00627505106636        0.00319549226105
N           -5.21790540927484       -0.10310460222939        0.01219330762938
C           -1.84158484470113       -1.13775907270212       -0.01345316335644
N           -2.36754254871520       -2.38045056340741       -0.04826323381131
C           -0.49713806279791       -0.74067460529582       -0.00804734021111
C            0.52283180501624       -1.69413497134870       -0.01354969917197
H            3.90962115613682       -1.14131421412336        0.03118965191089
H            3.94006364936399        1.09141365048059        0.02658018603386
H            3.30447021840087        3.42479228479826       -0.00749157788541
H            1.01446335998093        4.84202584195435       -0.01708300265740
H           -2.17677426640289        2.17894058803487        0.01439868330875
H           -1.79018859444943       -3.19896921546911        0.01838215095244
H           -3.36433078068560       -2.49174603617021        0.01590656783899
H            0.13266524738266       -2.70995280078440       -0.03052322630323
