30
 energy: -49.288299287182 gnorm: 0.000546414612 xtb: 6.6.1 (8d0f1dd)
N            1.88930093648318        3.28603330266133       -1.06764377717860
C            1.34177935674933        2.21875417101959       -0.39728407045443
C            2.25329319785935        1.45829116535270        0.38789819995475
C            2.28720272021260        0.11365526214968        0.66044503476605
N            3.38692926694128       -0.31877043713171        1.37663001518841
C            1.46702707104760       -0.95252914945808        0.15923686541620
C            1.95725851611104       -2.24501363714621        0.05960259329187
C            0.94116768812186       -3.14505221148305       -0.31587588921595
C           -0.23787975735996       -2.44605482592416       -0.40316907299374
N           -1.46236328974165       -2.89875088012790       -0.77484570139727
C            0.03786415753661       -1.03384147086769       -0.15049126066169
C           -0.97505343934198       -0.11402692632722       -0.10532702144844
N           -2.28292790870969       -0.49375998594057       -0.02982901919645
C           -2.98852077180250        0.60615313937231        0.23320415616116
N           -4.32803321923202        0.55023914244321        0.39596204656991
C           -2.20047655438346        1.78120109078447        0.25286930621128
C           -0.90893240874043        1.38346296544870       -0.02490796151489
N            0.04793747175448        2.20307709959825       -0.40699972252942
H            1.26824568914999        3.78130304021990       -1.68577379920288
H            2.85817485809387        3.23981831803660       -1.33104359031734
H            3.11372133177252        2.02625600636926        0.72613144483556
H            3.31054230578817       -1.20884389139836        1.83755434028094
H            3.91224391379528        0.38376229368706        1.87008160111906
H            2.98398304958866       -2.53559906145392        0.19985205336411
H            1.07302725424144       -4.19660346520799       -0.49406464150629
H           -1.63338781334891       -3.88823570835516       -0.72072232892163
H           -2.21143728949832       -2.24310535755228       -0.56311632742160
H           -4.80707040282580        1.33823380774582        0.79276489637708
H           -4.75832987266942       -0.35508430933579        0.46191946441112
H           -2.55695189719339        2.78147514412195        0.39470955341369
