26
 energy: -43.199241623756 gnorm: 0.000633922267 xtb: 6.6.1 (8d0f1dd)
N            3.49003118050190       -2.42478308776131       -0.51635816392322
C            2.45018835274242       -1.99778732217527       -0.28026382018251
C            1.15911467470838       -1.49106709138285       -0.00783776196816
C            0.15530873905549       -2.45654943914231       -0.01828426713756
N           -1.01033939816454       -2.45334904943592        0.56381672668325
C           -1.96972996965828       -1.63721182806459        0.81543902720580
C           -2.28762986799584       -0.41917921810166        0.18424738129865
C           -3.59302744519522        0.01744594825104        0.00186017854063
C           -3.57231075910976        1.27407287485967       -0.62719681757250
C           -2.26417982645897        1.67602339094308       -0.76101080034199
C           -1.39965305018883        0.65441201892532       -0.28050839951644
C           -0.04231048603345        0.86627273008255       -0.05609080200126
C            0.53239452427194        2.14127866126075       -0.05845979619871
C            1.89210442316814        2.04590012253648        0.23665305480035
N            2.75649001851227        3.06320002095155        0.38441873290912
C            2.22551478278219        0.66934567317652        0.37238098845807
C            1.09409309999424       -0.08986000024795        0.19604546984739
H            0.43140552708954       -3.43371015681825       -0.40949643812328
H           -2.71482074162694       -2.03603875822822        1.50178048372577
H           -4.47329848545187       -0.54167933958066        0.26167275250844
H           -4.44017700911211        1.83280460567076       -0.92788376453293
H           -1.93737141357071        2.60082775364473       -1.19640078486010
H            0.00131262658182        3.06379116895763       -0.18851908134854
H            2.45930634064398        4.01076884836971        0.23513249705518
H            3.72317084171978        2.88145667841951        0.58676974285033
H            3.21375491649428        0.29199014178994        0.55889021252408
