34
 energy: -62.584814561793 gnorm: 0.000963699503 xtb: 6.6.1 (8d0f1dd)
N            3.11623752836236        4.48733895577557       -0.31102754990888
C            2.39024600437463        3.60168997823652       -0.19756696707232
C            1.53277045574589        2.51249602106879       -0.05523897690245
C            0.18633749346045        2.55628000867566        0.38788547643808
C           -0.37611530575562        1.29738392162980        0.31164858188465
C           -1.71131930617048        1.07687726095392        0.82407491846833
N           -2.01831896929990        1.77247102779490        1.94296532761424
C           -2.72141666052131        0.37058306394065        0.19019859297385
C           -4.04076312973439        0.48614702375456        0.63716499080159
N           -5.13377262227954        0.58718987359752        0.98800390343826
C           -2.52304785990816       -0.41890053929912       -1.01638729992568
N           -3.37673504682195       -0.20767209975946       -2.03905673437225
N           -1.66788494203394       -1.37031849584270       -1.12410049410511
C           -0.60834616318905       -1.80554892179791       -0.47575523643260
C           -0.31831662739576       -3.14176605765243       -0.28062645280161
C            1.02980258977371       -3.25475202017920        0.10184522040893
N            1.67939433736126       -4.38492560760009        0.40534447421330
C            1.62431274245447       -1.95808560024661        0.11489903853612
C            2.93808654465516       -1.78249582344524        0.52352683413053
N            4.03964831993399       -1.72509269640789        0.86596047288941
C            0.61904102643249       -1.00592507589719       -0.16203226958712
C            0.67268809896211        0.37532881412090       -0.11112458430542
C            1.85974536607504        1.18239547144542       -0.31620222091669
N            3.01717228940421        0.77770677466006       -0.89408221840853
H           -0.31668258105315        3.46171446151207        0.67907286666988
H           -1.33906615189983        2.39307422102119        2.34589891917078
H           -2.97196595895814        1.81540140917153        2.26336307121810
H           -3.35391026045389       -0.83094239308123       -2.82791881883045
H           -4.17790894698177        0.38496668100995       -1.90747240000263
H           -0.99911721138551       -3.95791463209281       -0.42252675297412
H            2.64742273296177       -4.35110752181061        0.67847805051866
H            1.18914247356031       -5.26088527867924        0.44184350748713
H            3.75611926799349        1.46238800683443       -0.93210886138676
H            3.31121992413049       -0.18083935251008       -0.80469684072798
