29
 energy: -51.952848872078 gnorm: 0.000673318299 xtb: 6.6.1 (8d0f1dd)
N            5.32266384517593       -1.01856443942472        0.19849151038749
C            4.20736876466104       -0.75412951146090        0.17145192607319
C            2.82177885856920       -0.43714752701036        0.13107284417027
C            2.53591404009429        0.85037948744395        0.51452595534177
C            1.36997177928710        1.63719315736100        0.47244001973024
C            0.05170690001614        1.41240780347271        0.17693716903988
C           -0.82085925818782        2.54823008448483        0.00421541460716
C           -0.40958761018939        3.88298963899783        0.05489238416081
N           -0.06690483415244        4.97848646056400        0.11387747876443
C           -2.09303512072835        2.10491801998437       -0.28355179191556
C           -2.10250227497142        0.69090525591367       -0.23301873321642
C           -3.22344114067145       -0.05462290930555       -0.59860519963775
N           -4.15926639784158       -0.64627691650944       -0.91360022992294
C           -0.80827878056434        0.21167773125169        0.06388291014671
C           -0.50720447395893       -1.14129601259228        0.26592191614957
C           -1.45412578171121       -2.13671539184621        0.57356172780772
N           -2.60457830875839       -2.01221356373222        1.27609204368981
C           -0.92269346323942       -3.40788392155606        0.20409060865114
C            0.33062805726299       -3.24292097141861       -0.30698763542370
C            0.72508013081358       -1.87626037002554       -0.16117208191517
C            2.03661216650703       -1.55493786213927       -0.28771100038797
H            3.41084113224436        1.41102439842636        0.82956106044788
H            1.57969254345447        2.68631006059249        0.66485394645995
H           -2.94342939130670        2.71754829386798       -0.52307392321226
H           -2.99393728161256       -1.09806271899218        1.43158853968357
H           -3.27010669120472       -2.76510535074541        1.22217128030202
H           -1.45202020375972       -4.33654087827375        0.31712264126846
H            0.98371645534853       -4.02042547277919       -0.65693489365507
H            2.65505535162753       -2.37426397714648       -0.64560191220013
