31
 energy: -53.816809802557 gnorm: 0.000730796261 xtb: 6.6.1 (8d0f1dd)
N           -3.50553757970432        2.74406177903805       -0.24988962770119
C           -2.55289928014156        2.10851367667084       -0.11806876842736
C           -1.36460829050758        1.37556178878418        0.04450857984412
C           -1.53370385243111       -0.01240013315294        0.22243377332847
C           -2.77355209050297       -0.57945171308488        0.43614280601499
C           -2.66903066798300       -1.98311025636812        0.30281683463859
N           -3.67542270925295       -2.85728707745970        0.48445256375268
C           -1.34302144083384       -2.30645599061689       -0.01977299468875
C           -0.57902746622320       -1.14555842641755       -0.04823397710378
C            0.78796732567908       -1.14154972121206       -0.32449959985760
C            1.47247749132548       -2.25950501918566       -0.88462740299266
N            2.78053420118558       -2.10771683147508       -0.90398985663642
C            3.03649964427779       -0.91706382768087       -0.30413068499959
N            4.34159932071651       -0.51689571830837       -0.10575520345358
C            1.86136741362873       -0.24302857131616        0.04627742388362
C            1.79694350545859        0.97660736386970        0.77300625257985
N            2.81311695250544        1.24193387666614        1.63677336153057
N            0.96046395215743        1.95263879205782        0.58322275585865
C           -0.18050616093263        2.16108953108528       -0.02891684891471
N           -0.27346373078856        3.36588638543971       -0.65187699037466
H           -3.68073962664486       -0.04493058756824        0.64697672907497
H           -3.53382177276000       -3.83647556911434        0.31366720762829
H           -4.60201189181433       -2.52568131426775        0.68261875176954
H           -0.97083033641425       -3.30373097157849       -0.15186635587165
H            1.02301557637595       -3.13154885554676       -1.32062904199296
H            4.98902289696227       -1.05582871077853       -0.66299342728515
H            4.49974393290454        0.47931491818261       -0.14911624452464
H            2.72832831454546        2.05168979001709        2.22725175802703
H            3.39360287730269        0.47973265993473        1.94098048185068
H            0.48774896951545        4.01370584305610       -0.54430999855300
H           -1.17861812770677        3.72043794922147       -0.91217367780782
