28
 energy: -45.853980974382 gnorm: 0.000796000921 xtb: 6.6.1 (8d0f1dd)
N            4.28097925740997       -0.09583009062279       -0.08683451816038
C            2.96910963807482        0.20034207732527       -0.05921459638272
N            2.52451382610941        1.43898266554374        0.16517241349601
C            1.18100043810281        1.34070801024509        0.13798251285986
C            0.45772373001431        2.50142595174817        0.29609476913555
C           -0.89083676175492        2.82687614658748        0.16520676140411
C           -2.05007963548498        2.13716980537093       -0.07572022320646
C           -2.45602777881538        0.77781093841041       -0.12183943138980
N           -3.80561256142787        0.65844754705078       -0.31995939373023
C           -1.76752090310912       -0.42655269925096        0.07921352910953
C           -2.46625438593572       -1.62865463162268        0.29227581460050
C           -1.60027610766135       -2.70833457300808        0.29292541008066
C           -0.30936146871497       -2.24319481879954        0.03904259316025
N            0.79160026984894       -3.01240467128317       -0.13161480604893
C           -0.33941268270586       -0.81166952824449       -0.02986413993159
C            0.84443297831387       -0.09885856476138       -0.08130214139615
N            2.02640784697451       -0.74230645794089       -0.21514413502448
H            4.56159718478269       -0.99038447413587       -0.44640429399847
H            4.92665143839737        0.67274347876764       -0.11886287701615
H            1.10910245456029        3.34771596898332        0.48194568336454
H           -1.05570130489755        3.89847909532063        0.23393188347366
H           -2.90179826997444        2.80035987845412       -0.20766262610578
H           -4.35109221555395        1.47961895525671       -0.51015878409201
H           -4.19956629482469       -0.23128484848875       -0.55990566716014
H           -3.51878214980912       -1.72230455232421        0.49460259845168
H           -1.87038151303046       -3.73602405277356        0.45708895624170
H            0.77782171898243       -3.94224774215313        0.25292045556066
H            1.65711378692915       -2.47203121815466       -0.14098387469555
