23
 energy: -43.262041586799 gnorm: 0.000863734329 xtb: 6.6.1 (8d0f1dd)
N            3.71143552217087       -0.69334453592950       -0.23025638721389
C            2.53371952410029       -0.07686100205027       -0.07339379131622
N            2.50996533213185        1.26635476811720        0.10582813718503
C            1.23637069205591        1.60077813989688        0.23031753981717
N            0.78302934988150        2.83098416635046        0.38864785687234
C            0.33901526947905        0.43132136667079        0.19681620209850
C           -1.01308481110142        0.59577767081962        0.18707986626731
N           -1.61709803533957        1.82775822612153        0.06637051443602
C           -2.82705420985841        1.55974942814349       -0.36676992614642
N           -3.15878432842101        0.26329737348888       -0.52549623596759
C           -2.09499544617159       -0.40841317636345       -0.11215639332191
N           -2.06239165556013       -1.67557077244784        0.17426735560892
C           -1.14275476338253       -2.52088879864395        0.47916788386640
N            0.00968836751749       -2.78448117966238       -0.10853755653066
C            1.01278768830635       -2.01562872326437       -0.38193392088313
C            1.24835681546223       -0.68030006694472       -0.02753908930259
H            3.76543915311807       -1.67779710948696       -0.41781946647268
H            4.53987513696301       -0.12747752267083       -0.27187611628622
H            1.41824601866564        3.60908766695020        0.35601712060807
H           -0.24064093424003        2.91913172503922        0.35194103092142
H           -3.53297695020553        2.34019756267878       -0.58980585452955
H           -1.43928070750361       -3.27272700034014        1.21256384664602
H            1.82522933543131       -2.53072945137218       -0.89355082885552
