31
 energy: -54.606256106358 gnorm: 0.000571154649 xtb: 6.6.1 (8d0f1dd)
N            5.01980914632606       -2.41537402881883        0.35614397687834
C            4.01718008617058       -1.86169843497728        0.24506740990964
C            2.83422562970224       -1.13598908565216        0.10991607421026
C            1.53345735668356       -1.60150185714227        0.22450114508798
C            0.64147583718623       -0.51635296486225        0.12109447618661
C           -0.73920115363944       -0.72207227482790        0.09494546570301
C           -1.37732504629263       -1.92338140337779       -0.18298651136702
C           -2.75235775793550       -1.69338865900663       -0.35560802482414
N           -3.67450905300783       -2.59927070196409       -0.70737298953955
C           -3.02654403048408       -0.31525127342456       -0.11959339916523
C           -4.29176797933068        0.25635054759748       -0.19201095810885
N           -5.36112456557493        0.67482557268464       -0.27923694054916
C           -1.81832882359660        0.31007946822981        0.23625565311962
N           -1.76809157662802        1.47538504747477        0.79906560592372
C           -0.96151997668570        2.47542977105448        0.94905407580548
C            0.13028833154616        2.83429488624558        0.16638092328494
C            1.08866920791557        2.03181104325321       -0.45492809436721
N            1.95304891987193        2.67992130701915       -1.27786519224326
C            1.44827508974351        0.68170472216421       -0.13585078319620
C            2.78500326044781        0.26537291895918       -0.14963805215731
N            3.92854977868834        1.02187482488797       -0.35969016526379
H            1.25599764263775       -2.61721778739012        0.42892291761201
H           -0.90400663213393       -2.87516680738843       -0.32841898749016
H           -4.63436405381182       -2.31887011304724       -0.81648597366562
H           -3.43082318158838       -3.56896764511238       -0.80367215470837
H           -1.31693793538161        3.20667364409773        1.67197420809145
H            0.30238528265515        3.90094314063867        0.07296238207871
H            1.75771128708597        3.62456963324113       -1.55900609724274
H            2.65063638705147        2.15903522427425       -1.78004335645677
H            3.89639977005865        1.96451629218409        0.00311096980279
H            4.77330311181887        0.53334323428441       -0.09263927545030
