30
 energy: -54.897796462693 gnorm: 0.000931773457 xtb: 6.6.1 (8d0f1dd)
N           -2.46808498323751       -3.65805018938194        1.40692894983125
C           -1.89647635104010       -2.76851153159080        0.95310789014111
C           -1.17869706578962       -1.68561842742480        0.40142553177152
C            0.16987995625419       -1.88161900567102        0.35458845342417
C            1.25659151757103       -1.08172560576748       -0.05729027489834
C            2.55074743422832       -1.63123886239722       -0.28531929434369
N            2.87756516067847       -2.92278805715870       -0.37432633359141
N            3.51873206483865       -0.69156572909389       -0.45051667597108
C            2.92388622999999        0.47290486089007       -0.28999147232997
N            3.50967734979566        1.64896940626052       -0.34508165546036
C            1.45522529725696        0.32762883610881       -0.06219597618599
C            0.66077920334709        1.41747615362331        0.17179828357235
N            1.26487077956100        2.65037731045575        0.40407080075548
C            0.30862673294078        3.50652683795323        0.63729682349886
C           -0.97937833937617        2.91903790006376        0.52064548799925
C           -0.78775094784844        1.58791307271807        0.22879434206489
C           -1.87279420185864        0.72447008997586       -0.17552358266357
C           -2.96791844040028        1.46282638503298       -0.67481126715104
N           -3.87258756652187        2.04574845000500       -1.08218945176122
C           -2.04692748141234       -0.64067581569333       -0.15566527617571
N           -3.19127719517589       -1.15216722743287       -0.68874181025381
H            0.47344321739003       -2.86237212027149        0.71689267970871
H            3.84490979013135       -3.15806386382497       -0.50838036991783
H            2.20004942402060       -3.64885706211691       -0.22604907734168
H            2.88503942236637        2.43064879320858       -0.06938253807920
H            4.50633259521214        1.71002551589057       -0.46889242832266
H            0.52992864338783        4.53071476288286        0.88187062812955
H           -1.91542772486227        3.42924543259416        0.63811804432006
H           -3.43701331190244       -2.11272970516917       -0.51800158307484
H           -3.91578836802771       -0.52190570030358       -0.99278392731922
