29
 energy: -50.366441517200 gnorm: 0.000915563893 xtb: 6.6.1 (8d0f1dd)
N           -4.64234297328855        1.44254035579329        0.11299468097453
C           -3.55972443082029        1.06100619309558        0.01996233631764
C           -2.26106267706764        0.56947363477287       -0.07149565433398
C           -1.90826633839387       -0.80469102428351        0.00361193293473
N           -2.86837837486392       -1.79405116059904        0.13034722660480
C           -0.51453000566261       -0.94533200863361       -0.07255354736262
C            0.09984409366732       -2.19671144931749       -0.29581663668713
N           -0.72519964610567       -3.16835640765492       -0.77197535792081
C            1.40228161719518       -2.67866447514951       -0.01343012770568
C            2.57867594233650       -2.15568998432826        0.46516347979428
C            3.09299038978541       -0.87584911233409        0.65437016902901
C            2.62572950326373        0.38459962529289        0.34591205925101
N            3.48465705183014        1.41768443481804        0.44340635575304
C            2.78757636331079        2.48923783433799        0.08411759471769
N            1.51607110556492        2.29298179783693       -0.22049397418231
C            1.30924891118391        0.94801674943799       -0.06919027706668
C            0.03927544353183        0.43160507823630       -0.13787641307258
C           -1.09183416436110        1.32465422198028       -0.22475552528592
N           -1.00808953718258        2.64693633406786       -0.38876052979478
H           -3.78335511944874       -1.42619841909570        0.35567727276758
H           -2.60957669136056       -2.58100794641788        0.70834616937432
H           -1.62193590775312       -2.91605039249442       -1.15221066249491
H           -0.34071999058115       -4.06435865839574       -1.01581735877007
H            1.45784592757717       -3.75303781944158       -0.16819647184647
H            3.30897503305905       -2.92638231782445        0.69447293137751
H            4.10918770673663       -0.84394572260998        1.02874082314086
H            3.23070796895060        3.46903811564872        0.04386714633729
H           -0.04741990115329        3.00902589994249       -0.38222929972020
H           -1.82525003355021        3.22131344942060       -0.27425398173053
