36
 energy: -66.816167237467 gnorm: 0.000391208474 xtb: 6.6.1 (8d0f1dd)
N            3.08222198000888       -3.21983434726994       -1.94838958647345
C            2.51728549715632       -2.44405938460000       -1.31173939045985
C            1.82721753325359       -1.49007024390889       -0.54102274071440
C            0.81131879130752       -2.07362350860118        0.30658190038155
N            1.13549615087574       -3.28407296443359        0.82280063182543
C           -0.47232115242664       -1.58696793981230        0.53083459413218
C           -1.31891583752907       -2.43408223234510        1.28083883242830
N           -1.95657191663730       -3.11782175940276        1.94993196610386
C           -1.12637207014100       -0.41579471391482        0.04252686892805
C           -2.49158742519696       -0.40171525892032       -0.21943169605086
C           -3.36282753622612       -1.48364602619415       -0.35835371132041
N           -4.13402740858452       -2.31576065836992       -0.54581661529116
C           -2.91899939735873        0.95696241911649       -0.42961534628427
N           -4.16114314461339        1.32130436761194       -0.77077615704932
C           -1.81501099202431        1.78810345337989       -0.22070399953212
C           -1.87579680368897        3.17007585461139       -0.39312523395993
N           -2.01194097797625        4.30120702274902       -0.55823416099575
C           -0.66507187379663        0.97828623431607        0.03928692324955
C            0.57327503422793        1.48216697098948        0.37758356656582
C            0.73766361063503        2.79660818215346        0.94866023991242
C            2.05385265091721        3.01476087859928        1.18437698701521
C            2.79727825428203        1.89242049327641        0.68538397945551
N            4.16343154207096        1.84600018439797        0.69168055855990
C            1.90336760101939        0.93085318839094        0.21420552085734
C            2.31889100590409       -0.19227154211399       -0.58096583417853
N            3.41884909416120        0.03792134999462       -1.35050217216227
H            1.98250073192602       -3.74056602217925        0.52757558182794
H            0.42197003352157       -3.84336804087140        1.26342574913426
H           -4.87105685638916        0.62286105085367       -0.91155259807685
H           -4.38343187960463        2.29298752795820       -0.90431474693028
H           -0.07552151122269        3.44190782692850        1.21649700404015
H            2.49655316516793        3.87255172741505        1.65537935279256
H            4.62541045421284        2.48863124722442        1.31475519877518
H            4.60095392735938        0.94293640544275        0.59837906975220
H            3.72986534997146       -0.67915093832222       -1.98642959735348
H            3.67415622253717        0.98887012665030       -1.55268140240333
