31
 energy: -59.412760478764 gnorm: 0.000626236665 xtb: 6.6.1 (8d0f1dd)
N            5.30978162673550        1.42947546523632       -0.47140181565281
C            4.17149865947472        1.56995870969851       -0.39878355301089
C            2.79086363413748        1.74408695939242       -0.31650636954561
C            2.06658543079701        2.94762268218857       -0.53818865157655
N            0.77168791673118        2.82731305258906       -0.34659757737007
C            0.53279398106682        1.52185541093422       -0.05810333863488
C           -0.74235083013284        1.01668091245450       -0.01824298124275
C           -1.85795442767684        1.91766295999011        0.09334787717791
C           -3.00314644127059        1.18120438461187        0.17402416471588
C           -4.31476741550421        1.61823505932687        0.38667726010665
N           -5.41084686017869        1.91136243163828        0.56603283604437
C           -2.65810176355705       -0.22239618050407        0.00826057950598
N           -3.61055068903003       -1.19329826593745       -0.02188114425754
C           -1.27665394207228       -0.33344313524397       -0.10935338188742
C           -0.64363538903043       -1.56999568717517       -0.51479018571678
N           -1.41546083355144       -2.36195202634293       -1.31245868170470
C            0.55331701889790       -2.10051386251051       -0.06447131398260
C            0.87917065086501       -3.41635900405388       -0.42573265315753
N            1.14371008805104       -4.50218206611025       -0.70238623252490
C            1.50783399116841       -1.47966646547925        0.84714413340913
N            1.94346967237633       -2.23536179084275        1.87698759309700
N            2.06954467705161       -0.33654198936198        0.67088272836801
C            1.83529929510828        0.80107177398657        0.07440035728554
H            2.49407413611447        3.89315322138347       -0.82288059815963
H           -1.74748964007848        2.98109073899603        0.16993340843901
H           -3.32960792330016       -2.14832509956201        0.13075486464251
H           -4.52815570860440       -0.93643581213774        0.30733997976796
H           -2.17080048250955       -1.94266767466182       -1.82666081954788
H           -1.00591557856594       -3.20188263334979       -1.69026230375826
H            2.72894636795883       -1.90268223228305        2.41194947414102
H            1.72616332483143       -3.21738529866967        1.90415064712972
