22
 energy: -35.500454861132 gnorm: 0.000443314077 xtb: 6.6.1 (8d0f1dd)
C           -2.76472049023140        1.67505388415107        0.26830462876638
C           -2.96415155457676        0.30171111484215        0.29432574284561
C           -1.73827122720596       -0.34963455373063        0.09813815981066
C           -1.68166705446219       -1.69618572706969       -0.19079116788444
C           -0.58423709404006       -2.52963564002562       -0.45862410112339
N            0.60977190474142       -2.48982935875166        0.02819739457563
C            1.48071588559204       -1.66933340275308        0.50701387003355
C            1.67000476574165       -0.33352386558266        0.14401165484445
C            2.90052608473921        0.31943079292755        0.09693202091792
N            2.77941152212949        1.60028327532068       -0.28895965741751
C            1.48965417756394        1.84440966327074       -0.43519336880613
C            0.67916208799130        0.69949721536330       -0.20037633117259
C           -0.70057999582469        0.74809024914009       -0.03335961884648
C           -1.41545335750413        1.94499465145769        0.04679987861522
H           -3.52932800296124        2.41937189863600        0.40566091384409
H           -3.90503328366042       -0.19836956357323        0.42865961359963
H           -2.64763270048112       -2.17747850849855       -0.29994351481748
H           -0.78396397877193       -3.42602269974339       -1.04177800182428
H            2.24862189365498       -2.13688014817468        1.11893170890369
H            3.86870915584815       -0.10979482823801        0.27733639882340
H            1.15651958346276        2.81888290437496       -0.73756408581612
H           -0.98568817324510        2.92622741975701       -0.00265214807182
