29
 energy: -51.945676227343 gnorm: 0.000851698731 xtb: 6.6.1 (8d0f1dd)
N           -0.62884583471068        4.97386329035771       -0.28838018640753
C           -0.57353807555410        3.83414169626199       -0.16978045516798
C           -0.51360867315399        2.42274809987270       -0.03323998878545
C           -1.71311033167311        1.78613917485515       -0.31926587891131
C           -2.19743347783518        0.49770566407854       -0.12290448394993
C           -3.56403802545908        0.24759973981997       -0.18420774789236
C           -3.83984355164377       -1.09059534421101        0.13365068639483
C           -2.64589525493434       -1.75849675277062        0.32284360495684
N           -2.50927654124767       -3.06626768688210        0.67761757297206
C           -1.55186875174741       -0.83109926807039        0.08785070302140
C           -0.27941956216644       -1.23579046603217       -0.19347953646548
C            0.03666480734244       -2.58278813086314       -0.62248672912698
C            1.35349618052331       -2.66119055111646       -0.91833116339406
C            1.97902505045868       -1.40674159782051       -0.57629149119269
C            3.34682357256310       -1.17328466438388       -0.75865778285268
N            4.46439042647955       -1.03391071871491       -0.98343162682603
C            1.00832351218970       -0.51100449504821       -0.16092773999707
C            1.35130721662004        0.74365635084500        0.43375451779777
C            2.61932378391478        0.74825115309253        1.07519593122994
N            3.59206842557785        0.77088673912072        1.68247296535826
C            0.72504926121189        1.96656149519927        0.46480570235654
H           -2.49228426738672        2.47349560793384       -0.63919829106748
H           -4.30970503791993        0.99382459413768       -0.38947483549530
H           -4.81954466916660       -1.52030138464873        0.23123653934734
H           -1.64770831946682       -3.34899524039759        1.11607277769785
H           -3.34183938759652       -3.52939430082731        1.00482525656846
H           -0.70036627464533       -3.33146776143519       -0.83859587326174
H            1.87925513353504       -3.49684875766278       -1.34202701207431
H            1.33271936629151        2.76139314200986        0.89001597286695
