29
 energy: -50.382273650701 gnorm: 0.000564858492 xtb: 6.6.1 (8d0f1dd)
N            4.33265766043469        0.51833422808051        0.53236718247476
C            3.23782676516441        0.18702469567229        0.38761775112755
C            1.92230456004460       -0.27178385685042        0.21773170574185
C            0.92169649713215        0.70667279388146        0.27422523065998
C            1.21037919132786        2.05432120210174        0.44718407393953
C            0.04507971370022        2.76538472815596        0.11946843914263
N           -0.11740957471745        4.10135033081955        0.14544981381013
N           -0.96946536225252        1.95398641198613       -0.21938688406112
C           -0.53943781567128        0.67690456427465       -0.07368354567726
C           -1.45188089612848       -0.35590113241863       -0.14621457408959
C           -2.86008381352896       -0.09670655090014       -0.33640471873242
N           -3.35497851876880        1.08723896096935       -0.73504661902858
C           -3.58069180744138       -1.26029564638531       -0.04561886889061
C           -2.68961270780652       -2.24273962524298        0.34118982466366
C           -1.36670786799488       -1.76614935699354        0.25464282524032
C           -0.29345744110269       -2.58874633871651        0.54073754557118
N            0.95834969424728       -2.54445560601132        0.17666095799635
C            1.83324407575342       -1.65090341142502       -0.17893332422940
N            2.87186039799252       -2.12818608462439       -0.91452454754044
H            2.15815183181870        2.48073323247304        0.70936943587223
H           -0.95686416034026        4.49515935720759       -0.24073871995409
H            0.68096670428743        4.69459557266167        0.28027900385933
H           -4.34089092897796        1.25975994759643       -0.63302632799997
H           -2.66751872573541        1.84352023206180       -0.67010950747879
H           -4.65011600530747       -1.35461343939261       -0.09769019222159
H           -2.94992147726223       -3.24459553082511        0.63307359254915
H           -0.54298937899838       -3.52865267355576        1.03142415527156
H            2.92906169090400       -3.12230363496713       -1.05590838954263
H            3.70701011062288       -1.57596513914789       -1.01358356287984
