31
 energy: -54.621532689618 gnorm: 0.000386907886 xtb: 6.6.1 (8d0f1dd)
N            4.49960255507948        2.19107204051530       -0.01303179175600
C            3.58786022178177        1.48763643687946       -0.01624814732745
C            2.51889532275984        0.59593597544716       -0.01548995783352
C            1.15805399066073        0.91441656910792       -0.14184504813867
C            0.77129363806379        2.21353609400431       -0.48786890953690
C           -0.46810769781919        2.82198442789001       -0.51194447075776
N           -1.56763882371275        2.52111177439997        0.12692863393473
C           -2.19601953297793        1.46178184488767        0.52336454146659
N           -3.16454696954792        1.66462248600754        1.45724904583634
C           -2.13011009709771        0.15884650126128       -0.07174711185995
C           -3.22964544055553       -0.65924180575150       -0.29258324918530
N           -4.55767103894486       -0.34791664590867       -0.11421057345639
C           -2.76435784571364       -1.93965334332726       -0.72675421394113
C           -1.40478297898135       -1.94007502747749       -0.69489409701592
C           -0.93201774135786       -0.63813667933481       -0.31373483276956
C            0.41051627832586       -0.36688819015059       -0.11351934446094
C            1.39119415528440       -1.39340915910058        0.04026763348206
C            1.22722041911715       -2.76644570821068        0.20833496051581
N            1.21821315101382       -3.90629889616888        0.37797620650507
C            2.66750648587712       -0.81369899887465        0.12919884651183
N            3.82727755536655       -1.45895142860464        0.31919228232992
H            1.59600923990822        2.84843450418638       -0.79260117986957
H           -0.52030889473907        3.79488345722750       -0.99499596935247
H           -3.58066889453578        0.86633394748658        1.90406787037507
H           -3.16573767454339        2.54418369983770        1.94651114269250
H           -4.78898903564931        0.63392973905687       -0.12908792875886
H           -5.20364098016942       -0.93177316965304       -0.62295527129057
H           -3.40337145852551       -2.75787272767389       -1.00368845712167
H           -0.77096893996052       -2.75608671190589       -0.97985827235463
H            4.68666966171359       -0.94328641362844        0.39585704132662
H            3.83258475757991       -2.45811060602395        0.43297857311084
