25
 energy: -38.662242750219 gnorm: 0.000771421410 xtb: 6.6.1 (8d0f1dd)
N            3.84253230270153        0.08173067962135        0.01862760734263
C            2.56107520808033       -0.38175145422420        0.05504422076796
N            2.37500236275165       -1.74781030901484        0.18403833913678
C            1.10510793094561       -1.95925881797450        0.11686685131605
C            0.33054618374756       -0.72054445170105       -0.01193943267972
C           -1.03011485675228       -0.73492087983501       -0.06948629861934
C           -1.78289822875057       -1.96703450569369       -0.19242483066147
C           -3.10521016983082       -1.68531397830650       -0.13863857237285
C           -3.26607739437936       -0.27382060417588        0.04498907433133
C           -2.04323237948102        0.34310550200130        0.06025331708108
C           -1.95931273171978        1.75120441823567        0.24356102917386
C           -0.98964758929609        2.69246233259142        0.11276219787381
C            0.39178085140238        2.67898585694397       -0.22510066847507
C            1.34145274952983        1.71185541814208       -0.28840416043933
C            1.36123725026618        0.31211860151121       -0.04933171239829
H            4.53864400251502       -0.59198240874884        0.29301909080172
H            4.01397480904981        1.03473112141189        0.29126118529564
H            0.71008301702709       -2.95060919312180        0.22509994989674
H           -1.34927922040086       -2.93632930783521       -0.34029559396695
H           -3.91606673419920       -2.38704238891030       -0.21834704213044
H           -4.21633049112610        0.21954314007527        0.14350967382393
H           -2.93612180186932        2.15912327575846        0.48806479794953
H           -1.34917252265531        3.70546229745335        0.26724979416226
H            0.76639254040017        3.67618188795287       -0.43297295896866
H            2.32879234594334        2.08134560544309       -0.55042711534124
