29
 energy: -49.575543994970 gnorm: 0.000562119978 xtb: 6.6.1 (8d0f1dd)
N           -4.49253283491830       -0.67232786827212        0.89083913197624
C           -3.26659242033107       -0.27728979390506        0.46530459957967
C           -2.94535092168413        1.06441488593155        0.08613161628063
C           -1.63221204296811        1.10727514142202       -0.29190110401697
N           -1.08211131902922        2.11658354786474       -0.97851641695196
C            0.11698395602233        2.56226069071547       -1.03004789896078
N            1.11059964491091        2.47476181470445       -0.15046764413410
C            1.65550097315420        1.44304293330648        0.40413091151599
N            2.62408215912248        1.69772926716260        1.33051744560092
C            1.48156319648427        0.06475388430427        0.02081738931227
C            2.48406639164154       -0.90344098130117        0.04244886070388
N            3.82129978596578       -0.73353453924967        0.29673239091917
N            2.01329476656828       -2.15750720523804       -0.22477273687949
C            0.70573208409908       -2.04270219809598       -0.32465420340663
N           -0.08124136912689       -3.11278552092461       -0.60620869274681
C            0.24975092225497       -0.66348930947877       -0.18720416471749
C           -1.07247542344274       -0.27807824554403       -0.11110670590625
C           -2.15782063387177       -1.08853050237980        0.27908692811580
H           -4.59271374982728       -1.59208697354783        1.28475368166216
H           -5.14225456339963        0.03134411436169        1.19618884607776
H           -3.63307290987259        1.88797791509706        0.08324257658653
H            0.30182248182766        3.28744523628813       -1.82380682466051
H            2.93804634400182        0.94334704611526        1.91551365148229
H            2.66894207969393        2.63507217692843        1.69355502862131
H            4.20273282356221        0.16924553602083        0.05826342558388
H            4.38092209298405       -1.52173832198318        0.00856863831054
H            0.41733396685864       -3.92557342260861       -0.93314084996716
H           -0.96968320722243       -2.92128743943776       -1.04008665648439
H           -2.10356277875792       -2.12381150105632        0.55680299630330
