33
 energy: -64.443916986555 gnorm: 0.000627808848 xtb: 6.6.1 (8d0f1dd)
N           -0.13318761600650       -5.31063015417596       -1.01611854014859
C           -0.06107679761610       -4.20880495050895       -0.70605391818211
C           -0.00147505213671       -2.83823587424352       -0.34099538085217
C            1.22944931265989       -2.45972294856060        0.21129136585243
C            1.84436332621169       -1.24512874632176        0.44965933477292
C            3.09944858270546       -1.39996641340289        1.10004882384131
N            4.05539767124646       -1.58426582296980        1.70602787170781
C            1.53072139193514        0.09353921979663        0.09173321344323
C            2.54272236210928        1.03734091014322       -0.05139106785999
C            3.93176330055762        0.87614587034303       -0.07490774699068
N            5.07641146658258        0.88467452290211       -0.17790213193752
C            1.95946265279079        2.32533178040760       -0.31826741331945
N            2.64791011441584        3.43707148218651       -0.56899828838686
C            0.56506075416910        2.17611856033131       -0.27819200016262
C           -0.27015111685569        3.25449385767479       -0.58020411332902
N           -0.85602248464734        4.20455369075254       -0.85823829801335
C            0.24072371093640        0.80830279591147       -0.04505150600793
C           -1.06804612061503        0.37637965811081        0.11077601608354
C           -2.11100603588293        1.29164007798385        0.36889105895236
C           -3.33412414774685        0.64238688180876        0.31089310329248
C           -4.60021763602199        1.18814269894632        0.55111547614400
N           -5.66193306524825        1.58462579637677        0.73588936986813
C           -3.11227453778207       -0.72152624964102       -0.03949992366480
N           -4.10932215540047       -1.61526267287273       -0.17539795589223
C           -1.71396523075461       -0.94197578711944       -0.12095892899830
C           -1.23045112200786       -2.18940523221901       -0.46625930426427
H            1.85840599257082       -3.31176164391951        0.45960338290479
H            2.16537749189280        4.29908766312059       -0.76524915281141
H            3.65477821863503        3.41284315642975       -0.59317914132628
H           -1.98749121389829        2.32566536491864        0.62457865483004
H           -3.93810287457982       -2.56331146564199       -0.45887481866679
H           -5.06128291114526       -1.29869477794320       -0.11030571597268
H           -2.00334930407374       -2.86800123600608       -0.82015263790571
