28
 energy: -47.440715013046 gnorm: 0.000430428497 xtb: 6.6.1 (8d0f1dd)
N           -3.70061966790007       -3.00244449610501        0.24223515323051
C           -2.82714525317675       -2.26095163117944        0.15977129508718
C           -1.76358011198182       -1.32545696024846        0.06743258526570
C           -2.25241861055889       -0.01407639941339        0.09576974018547
C           -1.75492434363485        1.26663355521333        0.01593733840967
C           -2.67628750950930        2.33785774632390       -0.02440204582500
C           -1.99081248401846        3.53409174624788       -0.12462239505603
C           -0.62352988127509        3.26546311031094       -0.12069442363075
C           -0.40489428736372        1.88404687279161       -0.03088475765810
C            0.88062241158291        1.34074768802897        0.04607304227620
C            2.02723539476952        2.13560039863905        0.13849122459449
C            3.17094671068913        1.34421070292380        0.13388325281488
C            2.79424417482194        0.00919666083392        0.02800621795331
C            3.65153170641180       -1.08871899600192       -0.01166264684824
N            4.33895381543542       -2.01139076932354       -0.05179151176467
C            1.36153216323644       -0.07013678841432       -0.00753322690870
C            0.80018208979388       -1.31456003290585       -0.08979733695140
C           -0.48457840276346       -1.90627822960239       -0.06061008080079
N           -0.45492020211563       -3.26130495629059       -0.15342374757952
H           -3.33873204959905       -0.01130096710521        0.17208001120036
H           -3.74415210657940        2.22100123758917       -0.00089401231563
H           -2.43279941298520        4.51152565677050       -0.19393844316186
H            0.13857984069583        4.01648337974672       -0.19185846341948
H            2.04215000809615        3.20456864408273        0.21667059083183
H            4.18349459723708        1.69973289779946        0.20314751660078
H            1.56805451032646       -2.08408450115461       -0.16333638816789
H           -1.30544437134998       -3.79750780188107       -0.11289268161304
H            0.42139205711507       -3.74980669347615       -0.20768307754920
