33
 energy: -62.088959997270 gnorm: 0.000882065310 xtb: 6.6.1 (8d0f1dd)
N           -3.35136582287513       -2.65099280574385       -0.73163008191960
C           -2.39613200212458       -2.09028231454025       -0.41476267870132
C           -1.17492112624250       -1.48386051458666       -0.07089407002461
C           -0.05766803080654       -2.35217686736133       -0.11817099227905
N           -0.19948580251287       -3.52137204463187       -0.79115001695999
N            1.06899984080170       -2.25451280251823        0.56249643186278
C            2.00297069039881       -1.38536772158456        0.76751084032214
N            2.99328096555135       -1.79023133491414        1.61911820977112
C            2.17899834572775       -0.12710224880609        0.11950801640716
C            3.41305349076382        0.50530859009128       -0.10344019089343
N            4.65787810015606       -0.01488352708429        0.07070169767178
N            3.28786032935579        1.79123331144794       -0.52469420869676
C            1.99357193830141        2.05104430926856       -0.52625937026891
N            1.46010031331583        3.21591615689284       -0.87046643136300
C            1.18348745415727        0.87590887498172       -0.15726064086852
C           -0.18015034500266        0.95128340948521       -0.02059841751750
N           -0.78220301873840        2.19084761865724       -0.05219813749647
C           -2.07033981698587        2.01564145274881        0.16149071611288
N           -2.95654386436681        3.02234602549620        0.22490099709295
C           -2.40997087202882        0.62206449850921        0.28701865701096
C           -3.70688248566882        0.20017671495443        0.55688226720514
N           -4.80623337077553       -0.01420271454749        0.82457917046163
C           -1.21751954831635       -0.08850486447573        0.15168894509022
H           -1.10721002194301       -3.79048962127265       -1.13347908781876
H            0.51133902044803       -4.22374060592063       -0.68266958827930
H            2.78703840912190       -2.60250013548887        2.17836898353924
H            3.57037598187703       -1.08044019124539        2.03846347634558
H            4.74938571301379       -1.01722820075593        0.03489259237886
H            5.39422714382724        0.51948085818041       -0.36253182951255
H            0.45379648657290        3.28060307298156       -0.68785634482064
H            2.06074646877016        3.99496036341419       -1.07455821481072
H           -3.90774632662374        2.82088556988159        0.47890215528107
H           -2.63273910934983        3.97249844307869        0.21626275307777
