22
 energy: -40.296543402173 gnorm: 0.000355840072 xtb: 6.6.1 (8d0f1dd)
N            4.29100246353908       -0.84118130631794       -0.18623787595467
C            3.15150190531914       -0.74452869188167       -0.11209377204979
C            1.73680465532057       -0.70014719138462       -0.04197986200824
C            1.07686425241129       -1.90810047537024       -0.39005622355820
N           -0.03173369665301       -2.34849203358556        0.06627473492223
C           -1.18305383084638       -2.02090400695046        0.53903951043969
C           -1.92930840448920       -0.91274000417167        0.14022477119304
C           -3.32211584015599       -0.84172281304717        0.04835738935839
N           -3.73637269810606        0.36342433224308       -0.36199125404664
C           -2.66305312986560        1.12531735411627       -0.50206215147851
C           -1.45727622258991        0.43091893138779       -0.22473651437214
C           -0.23408355805792        1.06256925290117       -0.00959448999353
C           -0.05781587079923        2.44685641229196        0.04206138183197
C            1.27285061023680        2.68286710920391        0.37898749876901
N            1.99141687928905        1.56355007057004        0.47678589703166
C            1.16998181699169        0.53844609181883        0.22921693956537
H            1.62631117406779       -2.60520041497649       -1.01846047564136
H           -1.65605017456393       -2.77383217646126        1.16282094292134
H           -4.02375434946413       -1.63692079543364        0.21821728749948
H           -2.76357459124020        2.15046698794587       -0.80352627216839
H           -0.81687101037972        3.19372742985075       -0.07169678619735
H            1.73738226533599        3.63496974505118        0.56507381813687
