32
 energy: -58.340147793403 gnorm: 0.000840342916 xtb: 6.6.1 (8d0f1dd)
N            4.50543083904551       -1.98678567478063       -0.52963692790052
C            3.71332143372896       -1.16128404553290       -0.39560264598174
C            2.80337715092132       -0.12008512415064       -0.25353005388137
C            3.13028658571862        1.26824269474384       -0.41434072215996
N            4.34465229389898        1.71159255447632       -0.76498948747256
C            1.99247091287567        2.04036284628574       -0.16051947092407
C            0.91512647585212        1.19465136350640        0.09219559065019
C           -0.41784788391105        1.56110209460678        0.20769093803781
C           -0.82793856957589        2.89999281118645        0.49079646334812
N           -2.13100625861107        3.03708769686102        0.50886083491193
C           -2.65071990747402        1.82998253593278        0.15302304694062
N           -4.01864833753831        1.71474387127712        0.02647389149842
C           -1.66066355327946        0.85207166349833       -0.02527926891227
C           -1.95723197663752       -0.45577871360904       -0.53088192896684
N           -3.02936367299217       -0.52583079060192       -1.35473666519569
C           -1.37528460420231       -1.66336933246845       -0.13961796948209
C           -2.00577669313654       -2.85292583415125       -0.52314375406970
N           -2.53048234836672       -3.83437521520851       -0.82447303360499
C           -0.24487776415838       -1.83169456372037        0.74721188872853
N           -0.35498661377275       -2.78194357125114        1.70425569121852
N            0.90806012173167       -1.26476569078758        0.62715556627184
C            1.46006984211403       -0.20030389998876        0.11756351061555
H            5.08083583106529        1.05391364653053       -0.95780283268930
H            4.53104868597213        2.69616890191424       -0.83405551386046
H            1.94822677852628        3.10960657162725       -0.23672068652503
H           -0.18357220166325        3.71744449914680        0.75339395418156
H           -4.41652865965660        0.82975637946453        0.30720426297781
H           -4.49552286136104        2.51412952019797        0.41919687009619
H           -3.46665127562953        0.31948643215296       -1.67620867759184
H           -3.32157044859664       -1.41315040442483       -1.72837663724808
H           -1.12926030343990       -3.42379444726949        1.67851122335494
H            0.47855644315814       -3.05447586667490        2.19835278474165
