26
 energy: -43.191674471979 gnorm: 0.000907310904 xtb: 6.6.1 (8d0f1dd)
N           -3.83342342381293        0.31375335550158       -0.43279221292940
C           -2.76915740965018        0.71028424557888       -0.23702850344909
C           -1.50664935677616        1.24824571213181       -0.01536827997466
C           -1.26850874164971        2.66084762254354       -0.02219379420881
N           -0.01178973179036        2.95565690377075        0.09655238484007
C            0.69284097706057        1.76675785386974        0.14127358050538
C            2.03961544996095        1.91059677928543        0.28718864873051
C            3.15916622325646        1.04599402981185        0.24039841541639
C            3.32806359693049       -0.23192818103212       -0.18967581489389
C            2.44222779945623       -1.26400890946277       -0.60254066494320
C            1.12086059261781       -1.51592898827899       -0.40655862824778
C            0.65428597238468       -2.86429348198955       -0.58229564672276
C           -0.55650857686220       -2.99863765270955        0.01656280390356
C           -0.99502378267751       -1.71680643451396        0.48405333007472
N           -2.09804887451371       -1.58572889608815        1.26500679464357
C           -0.02705463652639       -0.75981081409204        0.16214354461447
C           -0.25489006517490        0.62915515437787        0.09245241065932
H           -2.02413737846364        3.42040524554971       -0.12245632054273
H            2.30561049127656        2.95229414312969        0.43465665840859
H            4.07991291453593        1.54888476426769        0.51519320711148
H            4.36387743969483       -0.55248294772189       -0.22726458358918
H            2.97298460421745       -2.10348237783011       -1.04274808888095
H            1.24373353659859       -3.64907190550983       -1.01871645674621
H           -1.12527807521582       -3.90394666217385        0.12933168194972
H           -2.45318545013985       -0.66488304686286        1.45986553629590
H           -2.79739242203624       -2.30607537315316        1.19570966617410
