27
 energy: -46.918725891996 gnorm: 0.000746648162 xtb: 6.6.1 (8d0f1dd)
N           -5.11086628842312        0.96348390291026       -0.36832657709493
C           -3.98363651110810        0.78112439744441       -0.23204608306977
C           -2.62678552927319        0.49826382706439       -0.06212084239029
C           -1.55322289574268        1.32741580271617       -0.29176168172347
C           -0.34564258783828        0.60672117022639       -0.05805845506607
C            0.87487347100980        1.24918312028880       -0.06698083599318
C            1.11013483059872        2.63432976727414        0.01035885934626
C            2.44540158204430        2.78612162362508        0.32760425047433
N            3.13603979361585        1.62395705589803        0.36960358258744
C            2.26776251440717        0.66831196314890        0.08146532676168
N            2.66001503549682       -0.52395296223009       -0.25558039546707
C            2.24986377266402       -1.74332736403417       -0.27266373219319
N            2.89646387920447       -2.58863039267809       -1.10522439874768
C            1.25634161653236       -2.32876760029419        0.59788406133631
C            0.00699244399028       -1.86607888146820        0.83614611187445
C           -0.73180147697958       -0.74882471129164        0.36234620603174
C           -2.12644258290184       -0.77711192012156        0.38000591826922
N           -2.95524771935183       -1.79102528297489        0.76156708392883
H           -1.60894109449643        2.34352964317224       -0.63104253754973
H            0.38682641354931        3.42153462468436       -0.06426374487569
H            2.95851629356928        3.70846168504421        0.53891604364409
H            2.70380851473058       -3.57346777118069       -1.09383820104956
H            3.63880481028281       -2.23331309895547       -1.68261773480762
H            1.52254819806056       -3.29543506265237        1.00490123693980
H           -0.60045267555548       -2.53075194325373        1.44444739600994
H           -3.93233416589952       -1.68921560308182        0.54125255695007
H           -2.60153120078696       -2.73081163458125        0.79445551527460
