30
 energy: -54.889043028444 gnorm: 0.000498468051 xtb: 6.6.1 (8d0f1dd)
N           -3.88430131130544       -2.96240571613797        0.04047646184928
C           -2.83986353121878       -2.48527778636226        0.05631568646697
C           -1.52703125478731       -1.96660053459699        0.06251331643733
C           -0.51301051860091       -2.90960162604279       -0.24759537432747
N            0.70801800799195       -2.94221834711574        0.12435133580074
C            1.61255927285529       -2.13060102380018        0.62995825512024
C            1.90578907803947       -0.85320111177472        0.23363590473329
C            3.21778910161295       -0.28634919117658        0.27361400404122
N            4.30344108127112       -0.82724257580770        0.87950206593321
C            3.21280949097076        0.90441287900050       -0.44702888897420
C            1.91016455606030        1.18534630604122       -0.86921793462117
N            1.59894745858150        2.16499059410508       -1.74568074029948
C            1.02363722143567        0.16993714861350       -0.37722859824143
C           -0.31891143714053        0.37556035287020       -0.09734379193909
C           -0.97588105730469        1.63261979140223       -0.03182509794684
C           -0.49905078722058        2.93108042656262       -0.09869995153830
N           -0.19473883832989        4.04462935872389       -0.13527625301288
C           -2.30944587097589        1.37682292139618        0.39531133394811
N           -3.24759640105239        2.29276482746227        0.65090699655443
N           -2.55217091098542        0.06900607282816        0.52565002051654
C           -1.42349764736721       -0.58805339465871        0.24242233075936
H           -0.83870782733314       -3.79376249972225       -0.79261370843970
H            2.32548682231195       -2.65437832818049        1.26335873504981
H            5.20842512892380       -0.46167303143451        0.63782980593786
H            4.26970513953146       -1.78204688362109        1.18973397672404
H            4.07118316294331        1.51953558248463       -0.64441156896779
H            2.23949603293369        2.93563138149771       -1.83802447828886
H            0.63217202808871        2.37894664146482       -1.92239070348640
H           -3.03718594585328        3.27310988477206        0.58373438548758
H           -4.13923631867588        1.98368049040618        0.99538839652568
