31
 energy: -54.620175063200 gnorm: 0.000761224145 xtb: 6.6.1 (8d0f1dd)
N           -3.85759371105175        2.60973237303189        0.54442600926886
C           -3.22878635042808        1.65571030362411        0.39916589238432
C           -2.52393287370753        0.46772557038376        0.24364696735699
C           -3.09500551570631       -0.83695073985115        0.39223194012088
N           -4.36624791606564       -1.06118197906712        0.75149108394080
C           -2.11690974670054       -1.79890153727389        0.11499727000541
C           -0.90249853359356       -1.16307569917380       -0.12823827572599
C            0.33460459756471       -1.77881006225104       -0.28149091963287
C            0.46499003979031       -3.16082756960613       -0.59440678839396
C            1.78920356227993       -3.50816826680277       -0.55631968199398
C            2.52817362755486       -2.38634089599281       -0.13197813558836
C            1.67784864782275       -1.29672436818482        0.01523871326938
C            2.16932772672236       -0.05378488844706        0.54169551792261
N            3.17147753163204       -0.16897341490303        1.44370920275115
C            1.84470168678222        1.23364927277839        0.11101024125072
C            2.68938997900036        2.28712930326073        0.48572060862526
N            3.39340949300308        3.15278660356035        0.77325585229887
C            0.77199896722439        1.60555208904403       -0.78099716180592
N            1.04927583081637        2.52008193072289       -1.73827478439816
N           -0.46555794166901        1.26065572118906       -0.64981729927914
C           -1.18698617753139        0.30718590467667       -0.13230211102790
H           -4.72672069952130       -1.99704081165041        0.80547336512851
H           -4.97374000310136       -0.28528688911323        0.95230582579210
H           -2.27087489662827       -2.85900361162092        0.17477670023447
H           -0.35214950003850       -3.79457061030572       -0.88142773117395
H            2.20814450665696       -4.46651135452699       -0.80345070859982
H            3.59886490774722       -2.37151588562901       -0.02133508520625
H            3.69312483831804        0.64401312733820        1.72751296725398
H            3.51866425002690       -1.08062416908563        1.68124108709412
H            0.27777879556176        2.93964961866245       -2.22956268777178
H            1.93095409893624        3.00427177271596       -1.72354616950228
