26
 energy: -42.402287790583 gnorm: 0.000991752729 xtb: 6.6.1 (8d0f1dd)
N           -0.00047853691002        3.30483931894247        1.14513699149167
C           -0.00106846186821        2.20018514817959        0.35699110972982
C            1.30736241923441        1.71966871593350       -0.02945445887556
C            1.76110131699417        0.45806589126918       -0.20057393985917
C            3.15610544474897        0.20524472991330       -0.44530614810408
C            3.39064317356333       -1.12261703124332       -0.27668155598059
C            2.16817441693264       -1.78470550969034        0.03681749026370
C            1.13552257866774       -0.88172744475514        0.05482681843596
C           -0.22234004284161       -1.23486972465363        0.24685086871017
C           -0.65262131284643       -2.51404769148401        0.62878346494230
N           -1.97618600037209       -2.66954042813497        0.52671010965251
C           -2.45442157104315       -1.53849317442776        0.01739430960894
C           -1.44789111515881       -0.57234249819727       -0.16247378762251
C           -1.68295613941776        0.73726136719764       -0.61634793315853
N           -2.67915705226350        0.94913056336031       -1.50340091078748
N           -1.14712489191620        1.82506683678302       -0.09344337808175
H            0.84558587620047        3.59301112506521        1.60315059860220
H           -0.87908037368690        3.63144281028417        1.50923192324120
H            2.04591782261187        2.51115660151544       -0.11364088402811
H            3.87186163174790        0.97138487414301       -0.67829734557969
H            4.34112391753765       -1.61810366345012       -0.37296058681642
H            2.07855893054497       -2.84274230128119        0.18982732896661
H           -0.04680330622537       -3.31822451419685        1.00185519583790
H           -3.51394139552200       -1.40820449236015       -0.12457361086072
H           -3.25909607075183        0.17506530556334       -1.77546381302151
H           -2.99665890546056        1.88805854172493       -1.67608220490696
