29
 energy: -46.352319845837 gnorm: 0.000351257814 xtb: 6.6.1 (8d0f1dd)
N            4.09810601743970        1.67434877635052        0.65764823112633
C            3.00692197886216        1.49634015352024        0.34424596867082
C            1.64506470686202        1.33024845493582       -0.01441484671129
C            1.02977796741384        2.55513445925500       -0.26170408139792
C           -0.23423141487283        2.94815591259883       -0.66936081180473
C           -1.46526912781909        2.31179091940939       -0.73421601729111
C           -1.96264917156889        1.08319146818815       -0.33370593008653
C           -3.35083716691933        0.90485815765751       -0.24265880628726
C           -3.63709020907967       -0.34534117578068        0.28612817722497
C           -2.44240904705617       -1.04033957821453        0.46862483438224
N           -2.36482740983570       -2.31629527303905        0.99052329173720
C           -1.35291917360296       -0.21754959262611        0.05309109821432
C           -0.07174020819806       -0.71206204225988       -0.13767888111631
C            0.20287284239694       -2.08510761324967       -0.24583993138514
C            1.57780825644413       -2.27939035842989       -0.34002240381064
N            2.21898892297546       -3.45832300565395       -0.47920426467052
C            2.21578605583593       -1.01641872588815       -0.22686194548768
C            1.26134314727970       -0.02400113989905       -0.15610801838967
H            1.72258872466995        3.38734310156588       -0.16308548824368
H           -0.28224459965840        3.99842959216486       -0.93662958270455
H           -2.25934079423662        2.97269286925226       -1.07198251854121
H           -4.07761511054517        1.65848633032408       -0.48611604550399
H           -4.61504860311187       -0.72272061479977        0.52715786949387
H           -3.19096151463101       -2.59398019570737        1.50097912996321
H           -1.50246141117721       -2.52366672766694        1.47471755934338
H           -0.53205194518859       -2.85479448022675       -0.37507831534630
H            1.69248419548076       -4.28540988575355       -0.69992884347717
H            3.20585986643144       -3.46179559801061       -0.66870005004151
H            3.27930463410982       -0.86665061221710       -0.24167745205909
