31
 energy: -59.427832524300 gnorm: 0.000876766528 xtb: 6.6.1 (8d0f1dd)
N            1.67483966054080        4.67165382309849        0.65357955332551
C            1.35211898014299        3.59562279703584        0.40436700112768
C            0.96990520218698        2.28042752024401        0.08943698742573
C           -0.34167649400868        1.94890954137109        0.31036245793891
C           -1.14119242098710        0.81636290394520        0.06839772839187
C           -2.55083264351146        0.93434720342210        0.13341609471225
N           -3.27916798903290        2.05200770324881        0.26257470192413
C           -3.15671142862930       -0.35348398150774       -0.00746230400167
C           -4.52977224311365       -0.59110420426432       -0.01289344862465
N           -5.66652455595669       -0.76810279496204       -0.01115947943866
C           -2.14442581587478       -1.29990657236611       -0.10975528851839
N           -2.25542068283651       -2.61355506653688       -0.22669641732485
C           -0.84820585464759       -0.59620323689927       -0.10680041039033
C            0.31309430546925       -1.31551592182406       -0.14610421267192
N            0.30191598640436       -2.69067753084645        0.01588131069594
C            1.51979665298151       -3.05570988325701        0.31827556085050
C            2.44915310254672       -1.97943066175133        0.29969194954316
C            3.81991693242285       -2.06329586429612        0.53749179194216
N            4.94836073056100       -2.14106092251959        0.74043111926777
C            1.72124445179784       -0.85003525327591       -0.08849628185165
N            2.25577687762311        0.26507013521873       -0.51801254887087
C            1.97702179862234        1.50971528244570       -0.64372468285707
N            2.72505375487963        2.22112342327357       -1.51380738171899
H           -0.90764153374903        2.78164565353676        0.72313824695997
H           -2.85023837159989        2.94916230551782        0.40432035236793
H           -4.27977893552763        1.97869170641084        0.33775103121204
H           -1.36178067007483       -3.12431809965379       -0.19662592132163
H           -3.15971314788341       -3.05493774881129       -0.21639289647082
H            1.75192717486367       -4.08469513154665        0.53112190153483
H            3.49326729284838        1.75959496227921       -1.97156676911023
H            2.70100625994482        3.22685251196895       -1.49636973044665
