29
 energy: -51.166537530174 gnorm: 0.000477972689 xtb: 6.6.1 (8d0f1dd)
N           -4.90222729851726       -0.29960185497781        1.52373830344364
C           -3.90492085342918       -0.46381908027117        0.97923993873981
C           -2.67297637196030       -0.68100627408164        0.31233540468903
C           -2.32433243484931       -1.97673540309633        0.15113990043834
C           -1.20007787673237       -2.60443126856376       -0.48532229818254
C            0.09501591789733       -2.25769771030137       -0.56799609628526
C            0.85216432969962       -1.11255897849500       -0.12746774707568
C            2.24220679709859       -1.22822408942001        0.08017910739087
N            2.96392183266159       -2.35446304925700        0.12725313877011
C            2.82750291210184        0.07622325408970        0.25191216320165
C            4.17695808798983        0.31658640722199        0.48965305935076
N            5.29875720487907        0.48804065516110        0.68350734294627
C            1.81406014424266        1.00671168648450        0.10596531752756
N            1.87712762922154        2.32541246726017        0.16252911014871
C            0.52980675646665        0.26753219050747       -0.08586591207789
C           -0.65590627568702        0.96423208571891       -0.20684603253254
N           -0.61042562411663        2.33531740849712       -0.44376008972641
C           -1.83817364440550        2.75503214862750       -0.55204060388922
C           -2.77637204526870        1.70482724719031       -0.33298981250077
C           -2.04618918758596        0.56184809682559       -0.11794061216968
H           -3.05004706001304       -2.69533386104100        0.52276412617567
H           -1.45026626144770       -3.58136937866246       -0.88507088349247
H            0.72982811583328       -2.99861091971275       -1.04801668852630
H            2.52485488764530       -3.25377976373192        0.03984291437891
H            3.95588178575117       -2.30452351957182        0.28628862948923
H            0.98605431215164        2.79736523964765       -0.06881211346067
H            2.75944346349286        2.79294858705018        0.28971249346509
H           -2.05799610294720        3.78523080891117       -0.76833385696904
H           -3.84479632407281        1.80449101109058       -0.33051114036736
