30
 energy: -54.896967894963 gnorm: 0.000885384022 xtb: 6.6.1 (8d0f1dd)
N           -2.81263190731154       -3.69304493669463        0.96692732730664
C           -1.97304607746594       -2.98854026659415        0.62157949640268
C           -0.93026498606623       -2.13054295241687        0.20705773950721
C            0.32312583274170       -2.72186440908221        0.19995746382209
N            1.42844462231817       -2.37160721890966       -0.40790795594887
C            2.07474288147216       -1.27832519172074       -0.64888070268425
N            3.09216967739529       -1.36401002095448       -1.54082021565296
C            1.93858935793198       -0.03657425621042        0.06119122469947
C            2.98128904744923        0.81047050132693        0.42094044502511
N            4.32779016126601        0.60250931227436        0.32648951511353
N            2.52045324573959        2.00552465645193        0.92010852363781
C            1.22499033758022        1.98195621178858        0.80590481501887
C            0.73041927012659        0.72374749922216        0.28947499326825
C           -0.60094553036234        0.48230701628997        0.01237805768044
C           -1.57182147186592        1.51097336288369       -0.13365585653333
C           -1.39947305770159        2.89261007311006       -0.17304415572562
N           -1.37251871906289        4.04243605117928       -0.23542009152004
C           -2.82706706713792        0.91957808449724       -0.37252827628814
N           -3.97055536406085        1.57276965285663       -0.61343174455841
C           -2.66940032614427       -0.49240630452357       -0.32466209553814
C           -1.34812377393961       -0.80198947208743       -0.11053733408883
H            0.37651680989870       -3.72348601424265        0.62283729374849
H            3.56295594455778       -0.52680578000854       -1.83480044958183
H            3.16224610655372       -2.19202166942075       -2.10772894791770
H            4.64799109416029       -0.35306504922706        0.35091657444086
H            4.87703950553767        1.25918841758393        0.85981129295215
H            0.62558192066331        2.80086694809468        1.15400629196467
H           -4.82257570592583        1.06749799582762       -0.78025452778127
H           -3.98059198739493        2.57885962245199       -0.62521122762739
H           -3.47079650125150       -1.19938400804567       -0.43251240104202
