30
 energy: -55.703874434849 gnorm: 0.000667823685 xtb: 6.6.1 (8d0f1dd)
N            5.67455527575491       -1.36359089571850        0.24408320711881
C            4.63453829674396       -0.89778615120425        0.10383230505301
C            3.37259441337169       -0.31305391492536       -0.06330581446318
C            3.12093452685216        0.92460309484964       -0.66682589290597
C            1.75212257082946        1.19987560327978       -0.56440794927671
C            1.22395548369474        2.41955338550491       -0.98856002276867
N            0.24555297417940        3.10245197103808       -0.48750148659183
C           -0.82061674253520        2.89933781525291        0.23098461416511
N           -1.20867126113056        3.92261460748411        1.02022553952376
C           -1.72733564152128        1.79856346711674        0.12114769948470
C           -1.48788642332799        0.46352069872934       -0.02460805361269
C           -2.58794289836416       -0.45338117940093       -0.04680875008933
C           -3.93256034342601       -0.09801791489072       -0.10925153529177
N           -5.04710637857849        0.18674314850044       -0.15182902317814
C           -2.09984084452355       -1.75582452888841        0.05193044839339
N           -2.80448621526983       -2.89183864542832        0.07536317069812
C           -0.66510436459425       -1.68388831651995        0.12632241246635
C            0.06363039332210       -2.87260604053566        0.18216515965094
N            0.52515114843618       -3.92670007015530        0.21852818433895
C           -0.24527077890269       -0.35316730812538        0.04967072935151
C            1.11323913501218        0.02493448211282        0.03963086476316
C            2.14865410289676       -0.87045719032079        0.33473852370348
H            3.86155490728246        1.58748072195791       -1.07435792554463
H            1.80583710529341        2.97556030222944       -1.72064060299464
H           -0.64296481634147        4.75241522189294        1.06548078065597
H           -2.09591846727967        3.90266641647243        1.48940363711410
H           -2.77244578124907        2.06975303477260        0.23199476634958
H           -3.80609929942589       -2.87072843050768       -0.00985060114814
H           -2.32858826372768       -3.77643512670322        0.13762713546029
H            2.04291407202727       -1.83066020886955        0.80090788117411
