30
 energy: -54.890083541239 gnorm: 0.000986210372 xtb: 6.6.1 (8d0f1dd)
N           -5.60804353541397       -0.24339493523464        0.34589974254429
C           -4.48987265398362       -0.49388959027789        0.25366439926615
C           -3.13640338189179       -0.81265886069717        0.16225768146611
C           -2.54968179346654       -2.08499288747109        0.42739842210116
N           -1.25598834237908       -2.10157600101424        0.24517674187021
C           -0.87623268358367       -0.81023924916570       -0.06582185558876
C            0.42781618026975       -0.40323555568248        0.00951494585288
C            1.50760445269828       -1.41206233673405        0.03057564936232
N            1.26938160949311       -2.71712643548801        0.07675665635242
C            2.71205963913338       -0.74072152332238       -0.07485988575667
C            3.98423874055591       -1.28982502591583       -0.19467623863057
N            5.04807194204366       -1.71818381118884       -0.29761156668817
C            2.43582414750379        0.67543408804228       -0.02695807031560
N            3.43223308774552        1.58914171493388       -0.05883213396008
C            1.05545080284334        0.89198229642611        0.05592450878134
C            0.50759239677846        2.20511546339684        0.36366569314666
N            1.36878022492434        2.99547233435071        1.10149910177512
C           -0.61539603560598        2.81615360386900       -0.12275199871105
C           -1.62053086784736        2.27878410195309       -0.96698248177989
N           -2.21128579867734        1.15157441853761       -0.89554858836274
C           -2.08546902681038        0.01528026990940       -0.24643950707588
H           -3.08112336621279       -2.97280262886868        0.72276359766715
H            0.28002666465388       -2.97728333596018        0.15667898525913
H            2.01804475134253       -3.38176532115362       -0.01710915542716
H            4.34706226448446        1.26697039915492       -0.33077084816517
H            3.20045133307228        2.55316126248109       -0.23339888486479
H            2.01549190436829        2.51996833461170        1.70951663484396
H            0.97672547707039        3.84431641347909        1.47793720107601
H           -0.69913829548906        3.88020143129999        0.06603529898631
H           -2.03299386081518        2.94785826434872       -1.71990519074365
