28
 energy: -46.644943496271 gnorm: 0.000552232391 xtb: 6.6.1 (8d0f1dd)
N           -3.59226313435513       -1.84380196825889        0.20724942664175
C           -2.49671500151659       -1.49582825294351        0.19588360189233
C           -1.11001935026157       -1.17293685840516        0.18401898182807
C           -0.24971742341567       -2.30009213455164        0.31256323667652
N           -0.88955913716732       -3.50217228417769        0.34692751523412
C            1.14007749903206       -2.38659313136389        0.43666803149681
C            2.21107785236824       -1.51606525040983        0.37200067827768
C            2.42757085864156       -0.17237152940453        0.11716482997344
C            3.75904204514441        0.29172426407462        0.02708591408695
C            3.75942861972877        1.63944794918786       -0.27674370563232
C            2.43639527263198        2.07126267859721       -0.36210339756510
C            1.56963318402187        0.99894205687151       -0.12218536801567
C            0.17794505288114        1.17075989235604       -0.07967781606618
C           -0.45066524264740        2.40006093864528       -0.19678685564512
C           -1.84069746538367        2.17394258850050       -0.10740469458789
N           -2.81897298615678        3.08693713219132       -0.15481758204800
N           -2.12246369284084        0.87264853606800        0.04482608509512
C           -0.95613567770279        0.20595771651443        0.07087818573006
H           -1.89337986130615       -3.54837309725979        0.32580094230333
H           -0.36821096853248       -4.34633170437612        0.50008926740557
H            1.45406574813595       -3.41306713918089        0.60763481800850
H            3.15382194040196       -2.03574712492664        0.52637881421933
H            4.62854356430445       -0.32700521826755        0.15848450764418
H            4.62814139256420        2.25632605865533       -0.42246592782226
H            2.13905672065476        3.07799125557861       -0.58563825319527
H            0.00355565145494        3.36260206144319       -0.31409665424813
H           -2.61463529005505        4.06109499320371       -0.27843508628576
H           -3.77005202172675        2.77303583103911       -0.07748543760112
