24
 energy: -38.959998324851 gnorm: 0.000752843221 xtb: 6.6.1 (8d0f1dd)
N            3.98023783000418       -1.08787363295577       -0.41309723966776
C            2.74514131766426       -0.61872139471027       -0.19672201433349
C            1.61221814063051       -1.37793117368642        0.19108166539628
C            0.53973267717435       -0.50885242971414        0.19802815926113
C           -0.81971793342385       -0.84368703761097        0.19453393497960
C           -1.25476938149815       -2.16233508670270        0.37959059903437
C           -2.61113882699384       -2.25662413027052        0.07922931703013
C           -3.05224622354653       -1.01417922585602       -0.34376860367388
C           -1.99835827849019       -0.08044901335045       -0.26307232364195
C           -2.25480834158079        1.24878049257488       -0.59317687680985
C           -1.62890041677210        2.44732987919187       -0.30755559360408
C           -0.38689373609151        2.68079754651055        0.28703480593705
N            0.71681782477895        2.01665487766808        0.18693897979927
C            1.17776111632094        0.83947968249583       -0.05782589945566
N            2.47047708266009        0.68337982632534       -0.37003628272853
H            4.21928783520448       -2.03573325043399       -0.18678383930695
H            4.69769233282273       -0.43710274390105       -0.67965578038347
H            1.61309989914608       -2.43509702540700        0.36659260113471
H           -0.63507912176546       -2.97403050624543        0.71182143813494
H           -3.21102494348245       -3.14534152520741        0.16211294054972
H           -4.05388037758186       -0.77394641204313       -0.65229819213837
H           -3.24616852131111        1.37447702775213       -1.02060905107393
H           -2.22491859364062        3.33659299531335       -0.47484451401872
H           -0.26418198342814        3.63266461336309        0.80186369067992
