26
 energy: -42.402897478828 gnorm: 0.000399076365 xtb: 6.6.1 (8d0f1dd)
N            3.82780654756578       -0.66229055984078        0.65990895559022
C            2.57526186848157       -0.58817415268745        0.12009301568266
C            2.01957383410997       -1.82073155628033       -0.32664258045470
C            0.71424220275682       -2.20662770305529       -0.45227794132784
C           -0.53215039880853       -1.62429358994342       -0.18079902016139
C           -1.67963564613149       -2.41206094453669       -0.22542853683852
C           -2.82413000000830       -1.66674285292645        0.08204027088529
C           -2.44368107216234       -0.35656948226204        0.30181982480950
N           -3.21261393720230        0.69208914082360        0.64959885450157
C           -0.99468210787809       -0.25797515444346        0.14269096921864
C           -0.37247800484043        0.95538650726726        0.12179437623274
N           -1.08741801688885        2.12195469796068        0.15345250850339
C           -0.29304124232171        3.06990473063330       -0.32266081248688
C            0.99959090643263        2.63369957190029       -0.61274842604891
C            1.05333581715545        1.29249874357145       -0.23868788808128
N            2.15878684224565        0.62742981762115       -0.07086130557216
H            4.19683739716465       -1.54722702757815        0.95614891269067
H            4.22291368147977        0.17838144183976        1.04424085083918
H            2.76103772054438       -2.59162308518283       -0.49929219012337
H            0.60333735882612       -3.24498533174017       -0.75385590421465
H           -1.68317122941100       -3.46240365827926       -0.46060394748219
H           -3.82685429277186       -2.04884131398691        0.13896862498149
H           -4.20985240592603        0.61845970479690        0.54209400418990
H           -2.73726976561299        1.59418612071724        0.56526563418106
H           -0.67135589278665        4.07300641777312       -0.43332537506603
H            1.81843862178777        3.23034297103875       -0.96015601574815
