29
 energy: -56.743631958135 gnorm: 0.000970947749 xtb: 6.6.1 (8d0f1dd)
N            3.13106403035501       -3.81763285280102        1.54654026474254
C            2.38281243303367       -3.12057676182345        1.02986344109226
C            1.45863300717722       -2.25150532804537        0.39438370912530
C            0.14470200973595       -2.54441778663960        0.53501878470620
C           -1.00559018485679       -1.94088347997564       -0.07612231477071
C           -2.16306115347917       -2.67000560351463       -0.34451459277028
N           -3.17603273972160       -1.92597409695440       -0.84042741237803
C           -2.78575922822781       -0.67706206959091       -0.78386229717331
N           -3.46155497627876        0.31167311220374       -1.35326726101254
C           -1.37763392375834       -0.57403726239206       -0.24713895406757
C           -0.71264073363698        0.58698251843777        0.05878606274311
C           -1.32674906734687        1.82130701683412        0.55242586375837
C           -2.67657793775615        2.01545761070804        0.86560535528078
N           -3.78277945604252        2.20121501859856        1.11660586143297
C           -0.33509732075718        2.71457780601267        0.84845427995555
C            0.92294841761289        2.13207882438152        0.46970347343532
C            2.15620807054349        2.78850944345999        0.59570090240807
N            3.15265768894789        3.33672568150202        0.74470791850546
C            0.71229550284493        0.83899333167597        0.02815559787305
C            1.76196474493934        0.04956709991561       -0.60709204550655
C            2.56881428250792        0.81291454919773       -1.49286210125590
N            3.17952694488846        1.42068049192253       -2.24798299804950
C            2.08934635573004       -1.24656398580223       -0.43932321197225
H           -0.08929521312405       -3.42943528510822        1.11808988440504
H           -2.30066773056378       -3.72602600725473       -0.19761047124295
H           -3.24846592084553        1.27948078795859       -1.17320456661395
H           -4.35846222809803        0.08135176707728       -1.75288814893727
H           -0.45490899866038        3.68601805364784        1.29053823779208
H            2.98664959423698       -1.59342385853347       -0.94218915460632
