24
 energy: -42.951534355428 gnorm: 0.000983440024 xtb: 6.6.1 (8d0f1dd)
N           -2.47147883110310        1.72473797193433        0.94522661977365
C           -1.30793758411039        1.37383570717936        0.33380250115278
C           -0.51461319116697        2.44701333924323       -0.09311251872162
C            0.76905846431120        2.46952580776197       -0.61945663814569
N            1.79034778457999        1.73064945325999       -0.31955003144078
C            2.11043522495162        0.53812509067012        0.01688166989597
N            3.32256689419201        0.18115642319379        0.46316721064531
C            3.32054857982941       -1.15075175420783        0.39129542860151
N            2.19322236481359       -1.74764777048277        0.01836276572564
C            1.31948973836934       -0.74486526562170       -0.16040396389964
C           -0.04371333291524       -0.90285695458965       -0.17999564491502
C           -0.62483824712533       -2.20711182614427       -0.28530165179806
N           -1.92966551231438       -2.17544438606753       -0.26820851275041
C           -2.29068246500877       -0.87475771630928       -0.06946504741768
N           -3.63461012446469       -0.59094830294949        0.01281019963700
C           -1.18629681437593       -0.00988562019183        0.00723184077432
H           -3.03351592512729        1.00870901368669        1.37401430259780
H           -2.57564130282461        2.66834458536726        1.27707374197088
H           -1.01484002927232        3.40884116113774       -0.06151207156480
H            1.03533835607573        3.33044104890071       -1.22982220313004
H            4.19950504226964       -1.72110719918363        0.63464125381790
H           -0.07097802864827       -3.11551536294959       -0.42090630020217
H           -4.19307677167517       -1.38867366781777       -0.25954806214767
H           -3.93256566665979        0.27537482318035       -0.41314615675775
