30
 energy: -50.085185860712 gnorm: 0.000538865963 xtb: 6.6.1 (8d0f1dd)
N            3.22917044604671        2.49268905825482       -0.95079123737043
C            2.28090898320936        1.98433544470416       -0.53964067885096
C            1.09769139881247        1.36699215051272       -0.08094780922083
C            0.03765676748551        2.24634882054741        0.19352817599968
N            0.33252782512155        3.58018284244766        0.09618603565672
C           -1.24662428321064        1.99319831311229        0.71667296718812
C           -2.15842681686232        0.96404822693102        0.62837491169266
N           -3.37819736233263        1.21077295384110        1.19993626067321
C           -2.10235122068971       -0.27571053115156       -0.08736086667230
C           -3.24222119935417       -0.90225833893398       -0.56220432837097
C           -2.91285924756006       -2.19610985804270       -1.03035857560318
C           -1.58766318453681       -2.41756596518402       -0.78767546533184
C           -1.01196231169560       -1.22913622137871       -0.24315251433651
C            0.33318057812559       -1.17922001897447        0.06484100411928
N            1.02630537097667       -2.32927859266228        0.15315696839036
C            2.31411136056071       -2.00666922026709        0.29101491986896
N            3.25502317003879       -2.94465729420136        0.47730664220398
C            2.52180466127057       -0.60287742454341        0.24142277066344
C            1.27551674802963       -0.02336949038470        0.13750673487975
H            1.21256366475412        3.86236704429720       -0.30093687577350
H           -0.41213089971724        4.25314527227547        0.11252217611878
H           -1.65886180638130        2.87793996270246        1.19775886287418
H           -3.48892171425595        2.01337318975731        1.79453987971766
H           -4.00493021980406        0.43928033306554        1.33983783803514
H           -4.22397975844459       -0.46614757556880       -0.62492935111611
H           -3.60517387940910       -2.87829862477026       -1.49000941612739
H           -1.01398012590367       -3.29494331065707       -1.01112116728186
H            2.98245834517429       -3.91074968730065        0.44331262147219
H            4.22769556823251       -2.69822849727343        0.48160148675999
H            3.47062017091762       -0.10659858995250        0.30434277004052
