24
 energy: -38.941980070783 gnorm: 0.000533441297 xtb: 6.6.1 (8d0f1dd)
N            2.80101274282600        1.42123876119154       -1.04053784777692
C            1.68601194352293        1.12459027269594       -0.33584428772956
C            1.06770684364472        2.22396313182010        0.31291720806374
C           -0.20888061440697        2.36226344761043        0.79326219643275
N           -1.31783081752281        1.80219073213085        0.36915561175033
C           -1.75732750924170        0.67106027460068       -0.02435184766165
C           -3.09869844342309        0.47947784984126       -0.46913341841208
C           -3.36480639821888       -0.86104050149183       -0.41801953176921
C           -2.19789419051459       -1.58597051446703       -0.05147192097359
C           -1.15424692699885       -0.71005416294750        0.12191338927481
C            0.21172835205213       -1.02348990488864        0.18542725600097
C            0.69001681663466       -2.33834732403604        0.32028664790521
N            2.01173198498909       -2.42067817566648        0.18449836256202
C            2.44156843488552       -1.20415380300367       -0.13581362321988
C            1.40892130718471       -0.24266424348227       -0.13089565621595
H            3.15490600404666        2.36201439405737       -1.05715530426936
H            3.37889055688551        0.68231774162366       -1.40020586423342
H            1.72262812308836        3.07520585790563        0.46497216633155
H           -0.39998855302970        3.20117564454548        1.45876309800422
H           -3.78074678141972        1.27625370641006       -0.69126368677400
H           -4.31384137134325       -1.31964047086374       -0.63676957648990
H           -2.14687212889868       -2.65543466756703        0.01802156937827
H            0.11221631738663       -3.21153140781517        0.55630275019690
H            3.49798000997110       -1.03321032990391       -0.25383239807538
