27
 energy: -47.712397110062 gnorm: 0.000606687713 xtb: 6.6.1 (8d0f1dd)
N           -5.37886971941062        0.16822036663191        0.75815990449521
C           -4.29162905681112        0.46578791637801        0.53124633090082
C           -2.97505184243898        0.84071111006719        0.26561392420605
C           -2.45992978327789        2.17439530237018        0.32524320796722
C           -1.13800846697534        2.17663611760619       -0.01329648205351
C           -0.70305513113703        0.82981333900950       -0.19522390209883
C            0.60068190629783        0.40688542631278       -0.13037671052246
C            1.67594469963950        1.35993457233155       -0.17438749370749
C            2.86509309966375        0.70859981098228        0.00269746527246
C            4.15624329879056        1.24625181280761       -0.02845100886457
N            5.23532225065226        1.63955001933770       -0.04699931055717
C            2.58943960992387       -0.69338705668099        0.22591471672089
N            3.57829950256210       -1.58067602099425        0.48644733450918
C            1.21320908743892       -0.90743233413055        0.13393386148066
C            0.68884544025108       -2.19707494848209        0.41262659037695
C           -0.45847333321895       -2.84908958366463        0.08571937930255
C           -1.57479550826482       -2.36059160370061       -0.64873525866748
N           -2.13328623232240       -1.21890935495197       -0.59458311737811
C           -1.94565714259150       -0.00877337570174       -0.13813644519768
H           -3.05297213732486        3.03148764368226        0.58973599670136
H           -0.51328035425298        3.04652334795083       -0.06491934956946
H            1.56384495300029        2.40820505797036       -0.36902698804203
H            3.39997510800200       -2.56824804190758        0.46920810902370
H            4.53209805907006       -1.27327796758874        0.40615283782284
H            1.42125459511597       -2.83212944923501        0.90313083376506
H           -0.49950261305221       -3.90712468656940        0.31025491315047
H           -2.08731253532786       -3.08074156853067       -1.28377324063600
