29
 energy: -51.156319873092 gnorm: 0.000470722112 xtb: 6.6.1 (8d0f1dd)
N           -0.42999509489867        3.83688189044691        0.79289366278770
C           -1.00280583559870        2.87904296726361        0.50179971623247
C           -1.73612498420862        1.74942372724563        0.15350367013665
C           -3.10708790694715        1.67227337134560        0.30048102990619
C           -3.55019716867697        0.37696080017797       -0.04973969648381
C           -2.45586602179244       -0.40255693136947       -0.34381636576746
N           -2.53502423383561       -1.59914386538988       -0.97074591923162
C           -2.04922407450583       -2.72726265841848       -0.68757480845845
C           -1.21307472180465       -3.10327864207667        0.43511582857404
C           -0.09270348400074       -2.47046830662981        0.81583818277928
C            0.56307319514321       -1.30149130896717        0.27917220872334
C            1.95526393580447       -1.17910628541544        0.37162307546898
N            2.83821469780316       -2.10270713641575        0.78421607982462
C            2.36457993952082        0.12194857084640       -0.10075100001517
C            3.68729926453315        0.53547184973158       -0.23153845554324
N            4.78969444417250        0.85400259027126       -0.32057568200204
C            1.22427397369080        0.83328789511032       -0.41454437474009
N            1.18352453284705        1.99608986025913       -1.07487842107932
C            0.04876618787229       -0.03205795929425       -0.15053681935859
C           -1.25183333656587        0.41807812644288       -0.18769790122662
H           -3.73814410281436        2.48029320520060        0.62465626406539
H           -4.57301112427468        0.05245745581113       -0.06921458129585
H           -2.30809022466949       -3.53309629138315       -1.37323431499587
H           -1.46490530860658       -4.04525125367478        0.90385911340417
H            0.48007959246697       -2.95355139924438        1.60399236237216
H            3.80735582873927       -1.85104329703366        0.87869232531881
H            2.52927071154926       -2.99307405098324        1.13130778433600
H            2.04036660020760        2.51722426941533       -1.17343289933764
H            0.32088882904970        2.51032540172820       -1.14889486919412
