23
 energy: -40.034192208195 gnorm: 0.000797601548 xtb: 6.6.1 (8d0f1dd)
N           -4.67936255968020        0.65655135551184       -0.00451894848355
C           -3.53523836926749        0.58426815526295       -0.00333168487327
C           -2.11416787598926        0.48949785013820       -0.00309583673895
C           -1.50082644979844        1.74712368720533       -0.00287223249284
C           -0.19578329509131        2.19713611824582       -0.00202065300735
C            1.05077589475792        1.58582560432580       -0.00079968702938
N            2.12856486816278        2.38281452553754        0.00022028623532
C            3.17770608311931        1.55916664571135        0.00128322473873
N            2.90558591504523        0.26277746090295        0.00094112182693
C            1.55994750456603        0.17936866397232       -0.00035941139100
C            0.95832620914812       -1.06617643919111       -0.00119803508741
C            1.72832846294665       -2.23801114540727       -0.00095353013655
C            0.88656055376042       -3.34330791111919       -0.00182647959838
C           -0.43468442767273       -2.90567598691242       -0.00260923087529
C           -0.47022369729708       -1.50153314299938       -0.00230879983789
C           -1.68178350068621       -0.84422325771862       -0.00289769260642
H           -2.22913662315916        2.55377402977219       -0.00341066492615
H           -0.09094524586393        3.27688858756835       -0.00213425161813
H            4.18729242379904        1.92860776200527        0.00235672193354
H            2.80076375055736       -2.23965922057180       -0.00021124805016
H            1.20273409072136       -4.37078202959269       -0.00189552743005
H           -1.30424611649250       -3.53714274034026       -0.00337081449058
H           -2.52013592758589       -1.53889037460715       -0.00336731486116
