31
 energy: -49.789127768789 gnorm: 0.000587351681 xtb: 6.6.1 (8d0f1dd)
N           -4.97642423438395        0.05445487099617        0.40275146751677
C           -3.89728551006892        0.41897645481184        0.22515559109363
C           -2.59085520472740        0.85163400844760        0.02775592640856
C           -2.21001904371697        2.17744791101440       -0.31354517474282
C           -0.85001252843985        2.23917038462449       -0.39415623708423
C           -0.28854572253864        0.94330045649290       -0.14857521325863
C            1.05738158919869        0.73228677686996        0.00941782441996
C            1.99330045735816        1.81308825873480        0.23625068857574
N            1.67555667348505        3.10932026357823        0.56567725933142
C            3.27576477293530        1.33000929475991        0.11512738418383
C            3.22469497433604       -0.04905895183191       -0.18291725424003
N            4.35005278837784       -0.79494818111329       -0.42629622558606
C            1.88875899627128       -0.48320295967076       -0.18522842327235
C            1.58219914847067       -1.81877355735727       -0.44516448501311
C            0.49748201957469       -2.64560924046258       -0.28896220330058
C           -0.81879993687795       -2.46477667423478        0.18389809047491
N           -1.46621455239963       -3.62976687617708        0.50085140022695
C           -1.59069812123979       -1.31531915762379        0.35913047400935
C           -1.44563741857645        0.03202318454079        0.06032588458825
H           -2.90208993667127        2.98192282909937       -0.49019467815020
H           -0.28706569347643        3.08998803853088       -0.72457835573375
H            0.79515515899005        3.23530069503702        1.04326063817148
H            2.44073443077735        3.63697918299800        0.95860425853892
H            4.17860395910328        1.90084942979305        0.24154482941166
H            5.21979494939505       -0.37702934902859       -0.13908603130685
H            4.29439373067967       -1.78932403400715       -0.28158234541576
H            2.45318316473187       -2.36572681134844       -0.79608208254999
H            0.71171883264447       -3.68617768170118       -0.51479230993468
H           -1.05839380266655       -4.51075718169782        0.24123360254453
H           -2.45750789573360       -3.61165706428357        0.66812209423719
H           -2.60295612190680       -1.54358926418310        0.68729058805241
