29
 energy: -50.369465639835 gnorm: 0.000372867566 xtb: 6.6.1 (8d0f1dd)
N            3.91465796525925       -1.81500311457569        0.44805799368170
C            3.07323902352335       -1.04649928193286        0.27773542172781
C            2.17197703831933       -0.00478234110719        0.09274207986031
C            2.61189689827266        1.36797253891540        0.02186142022322
N            3.88698236604809        1.76259694379626        0.09977143718335
N            1.60227207756409        2.20590090801915       -0.13521830527274
C            0.45708945424312        1.46811009708933       -0.13153634192721
C           -0.70049879179996        2.17072417149954       -0.31873880598841
C           -2.08861731895572        1.92005637711602       -0.19348990927857
N           -2.85100608130546        3.01692306957433       -0.47238725133932
C           -2.79707391368757        0.82771358423135        0.29131120368904
C           -2.53228031028869       -0.52835692158532        0.51405937820588
N           -3.52827587311259       -1.20064351423438        1.14398062273243
C           -1.45413048362594       -1.33623626606628        0.08122639726252
C           -1.61211041187990       -2.70671265869288       -0.18203579797436
N           -0.47670913626051       -3.29265881782363       -0.56829657722217
C            0.47157670061472       -2.36794285201866       -0.49170420593592
C           -0.03627802311282       -1.10256004806948       -0.13166862271562
C            0.78288324887723        0.02426473488119       -0.00410483520886
H            4.10363148914550        2.74169885609376        0.04800602274185
H            4.61667543907480        1.08400038970540        0.23018379563042
H           -0.47884712536610        3.21264935919423       -0.53065904859511
H           -3.85226140207425        2.97559491382429       -0.41992057267852
H           -2.42214723183434        3.86480644956270       -0.79454619627817
H           -3.83116775798612        1.07987823849831        0.51798555108279
H           -4.40873019874183       -0.75786497062762        1.33960346161812
H           -3.44355070870994       -2.19085737029761        1.28529216006424
H           -2.52638601668618       -3.27556735894328       -0.19920145700101
H            1.48640136368700       -2.60276536322557       -0.75196989898686
