32
 energy: -53.510796556705 gnorm: 0.000524243239 xtb: 6.6.1 (8d0f1dd)
N            4.39067702945071       -0.40393865647555        0.93633960438012
C            3.30807147868016       -0.33644785521758        0.54385828603541
C            1.99088642234798       -0.25203947138288        0.06545304192580
C            1.64218171963515       -1.33943750108330       -0.83913677210439
N            2.65997077093534       -1.70411511869815       -1.68040072389449
C            0.49340482363293       -2.08029009960686       -0.86918949908954
C           -0.68205306489936       -2.01207415542211       -0.09400924345839
N           -1.38679152415185       -3.11269963232050        0.08500786936427
C           -2.52687734806646       -2.77594647210964        0.74324618796766
C           -2.66970115025246       -1.42071297044828        0.87047330054576
C           -1.46779234423407       -0.84054632730105        0.36888386962802
C           -1.26239414548847        0.48458600297234        0.06496021316198
C           -2.35757380532386        1.42328185487258       -0.21462048847619
N           -3.67308539845654        1.07160143650223       -0.28994707382625
C           -1.82226884838440        2.65798027750700       -0.44910477927335
C           -0.41055918848536        2.57572239211776       -0.27750970788887
N            0.41624082492620        3.66235299798561       -0.36481681244518
C           -0.04526984148943        1.25105528125714       -0.01387474794489
C            1.27391132910179        0.87613664798536        0.42067137091243
N            1.92187907588120        1.83598675010459        1.15207768680061
H            3.58837534462784       -1.36474161645666       -1.48670746963004
H            2.59472936186566       -2.59766320972161       -2.13963089306624
H            0.52601027034086       -2.96591349695867       -1.49477702444131
H           -3.19164667010820       -3.54988975247166        1.08456951046326
H           -3.44519384166512       -0.90381955974603        1.40297545942949
H           -3.86593284611017        0.08785148121166       -0.40428378033688
H           -4.27571797041967        1.70160885732645       -0.79467397059213
H           -2.35644173630474        3.54870680186940       -0.72333066934274
H            1.39373826747713        3.48156876094083       -0.52967049438798
H            0.03847631333357        4.46924025764746       -0.83426777910501
H            1.36020221887782        2.52364648627413        1.62371267605569
H            2.80596552302614        1.59562055074683        1.57240469593355
