27
 energy: -47.729956562232 gnorm: 0.000842911729 xtb: 6.6.1 (8d0f1dd)
N           -4.55700476908436        0.02911058226938        0.84897268934715
C           -3.49493510153414       -0.32797030538218        0.58880560005989
C           -2.19637428201378       -0.72068265247471        0.26676935492125
C           -1.76535552801145       -1.97782393932284       -0.07220310649840
C           -0.37584204443396       -1.93389568470033       -0.36192940592138
C            0.29078190710671       -3.10683301479093       -0.72678394918336
N            0.74077071886597       -4.11840023066480       -1.03984786312511
C            0.11485934078173       -0.62658786056392       -0.18614468332075
C            1.47693174128155       -0.28338912247772       -0.16942753666444
C            2.50594656543227       -1.21039126391119       -0.39184867561252
C            3.72403950962530       -0.67666790899951        0.02689999660025
C            3.50179749308694        0.58454581747923        0.55073796107772
C            2.13819014418145        0.91244289830382        0.39398287943896
C            1.68291560908338        2.18565825858446        0.67754178007462
N            0.70170454429599        2.85958576592695        0.13764456633499
C           -0.45850855668979        2.60522590485735       -0.36562221305044
N           -0.97835291875473        3.51445570749883       -1.21430960139434
C           -1.34120899132824        1.52548550975258        0.02046933017611
C           -1.08211124539889        0.20174557761801        0.11795288703648
H           -2.36603990558311       -2.86914701018817       -0.10826758704076
H            2.37982476552322       -2.19492391347016       -0.79651363449403
H            4.67246989738257       -1.17831699333299       -0.03086892489486
H            4.24447412975122        1.25016347110097        0.95016392374519
H            2.33582425539686        2.80923165780003        1.28405322823654
H           -1.92321199153857        3.43314150895802       -1.54479793740409
H           -0.42480444550928        4.30947188432248       -1.48435152102901
H           -2.37719477279695        1.82142966210189        0.15491084762441
