30
 energy: -54.897160645361 gnorm: 0.000418817601 xtb: 6.6.1 (8d0f1dd)
N            5.39483790723260       -1.16778863476037        0.89374294299270
C            4.29060729235403       -0.98670937120145        0.62960360996058
C            2.96316911567336       -0.68269404468881        0.31799596491173
C            1.87482340460174       -1.52188339826716        0.29060065433217
C            0.70914363001725       -0.76000775561103       -0.02298058351762
C           -0.50536993829322       -1.39245678638263       -0.23237276435355
N           -0.51398797462454       -2.72983158652330       -0.38592385385352
C           -1.77649497631434       -3.10124490093206       -0.58096785471303
C           -2.67764671077586       -2.03944562652128       -0.50224474905315
C           -1.92203800990686       -0.89194431786779       -0.27886852696322
C           -2.47207837500769        0.33395613520215        0.12471645562256
C           -3.84328582780035        0.31938092708905        0.43966402490833
N           -4.96342262110084        0.35129054297100        0.70349317290764
C           -1.83076450066233        1.59245111579794        0.31774296174507
N           -2.43091702645113        2.47949729463157        1.14502656146256
N           -0.80810421261048        2.05577870018322       -0.35769872021692
C            0.37000519589908        1.69380122061555       -0.74984153273036
N            0.98323532920996        2.53680908154530       -1.62284518920346
C            1.14862198186175        0.61028750523860       -0.23107320288730
C            2.52581615034014        0.64327868880780       -0.04950564047273
N            3.38110768268980        1.69948492427834       -0.20307838013735
H            1.85895264286720       -2.57417487103016        0.49235187691342
H           -2.00627754516802       -4.13301337027420       -0.78321882820891
H           -3.74427312847985       -2.09247728649903       -0.59847788988340
H           -2.08474928951840        3.42246203905565        1.17999100572729
H           -3.34349539757567        2.27776616791259        1.51832310734593
H            1.79233249877811        2.20487593398238       -2.11981662666086
H            0.41051752043105        3.23357800802267       -2.07068288669222
H            4.29216066532274        1.58891711729036        0.21572984692163
H            2.98700586031603        2.62518683274645       -0.14576673179933
