36
 energy: -66.019758600219 gnorm: 0.000978327026 xtb: 6.6.1 (8d0f1dd)
N            2.96973308535551        2.24388330190637        1.94514216096779
C            2.17093556158816        1.93417728361065        1.17657490678302
C            1.13573062415671        1.58281553872901        0.28809387400601
C            0.32465099284521        2.60600530724098       -0.15443886240831
N            0.59379245329145        3.87667797465544        0.23540430576559
C           -0.74001683328894        2.49357682844058       -1.12969251359646
C           -1.77089198238609        1.62840663158097       -1.12918925932625
N           -2.80158491372568        1.78378522664782       -2.05083791459293
C           -2.02326615187332        0.57870491925399       -0.14769136112978
C           -3.29877697333076        0.31841177283534        0.38829608349109
N           -4.39647995687657        1.08456965379356        0.28954253142340
N           -3.34299952898245       -0.84635455350437        1.09931320208394
C           -2.15967168914016       -1.40148808134125        0.96907005075460
N           -1.81844432871757       -2.49716642624943        1.64992148203811
C           -1.23652086606103       -0.54433455318867        0.17945433751909
C            0.10321239146290       -0.79387109180680       -0.07754800111539
C            0.72713993146868       -2.07807182343740       -0.26214346996566
C            0.10700604485745       -3.30956691278791       -0.41799893828212
N           -0.36655354939865       -4.35595244657276       -0.53793485867014
C            2.10024428906526       -1.88755751614305       -0.42948349318979
N            3.03775116052862       -2.82741375992981       -0.66184455724800
C            2.36608308587566       -0.48483789380141       -0.28577554908826
C            3.64524318896087        0.05856843343635       -0.40463569912499
N            4.71873664119740        0.43762526875786       -0.56996064716944
C            1.16122152911022        0.19270007841416       -0.10799823129547
H            0.02358849764632        4.63758981737992       -0.08465378066348
H            1.35995336862933        4.06196259867637        0.86121355934036
H           -0.73829379197543        3.27675454983246       -1.88000596149209
H           -2.57599587231621        2.35264760058156       -2.85389626266011
H           -3.29455541911866        0.93536876885534       -2.28753016380278
H           -4.37770238535008        1.91036868034156       -0.28214048475585
H           -5.25490516565592        0.74586853537075        0.68409867915121
H           -2.55091445975717       -2.94927442860659        2.17194580398460
H           -1.02047344750257       -3.04484164326567        1.37114034088880
H            2.76208770695872       -3.77784609743673       -0.83659373054183
H            3.98301480095897       -2.54517982786916       -0.85400830747805
