29
 energy: -50.374693324562 gnorm: 0.000995528254 xtb: 6.6.1 (8d0f1dd)
N            3.16324268916805       -2.24219658152807        0.63564026000045
C            2.53647361692243       -1.31275194135678        0.35893279661742
C            1.89104380297662       -0.12717988157416        0.04459746195845
C            2.58339442998878        1.12059856046913        0.10712331652701
N            3.89162178690950        1.27351694510207        0.35349535293222
N            1.77806112061897        2.15342106189344       -0.12757448796962
C            0.53097617152302        1.67241049218985       -0.28533741818140
C           -0.43025737264875        2.55170048971355       -0.74289184224457
C           -1.81518098690527        2.40486323247298       -0.86181715391093
N           -2.62885917138960        1.67077502429957       -0.18289611825989
C           -2.58094202940750        0.58015063972898        0.55057626695464
N           -3.45692374451659        0.53094821115669        1.58287022558789
C           -1.88642639183776       -0.59634318183380        0.19212335879071
C           -2.42241890958382       -1.87574882683903        0.29334830898946
C           -1.51824225644937       -2.80222908593529       -0.22744996602160
C           -0.34870866752369       -2.13936939219160       -0.58161023160406
N            0.67370969453653       -2.71944049190824       -1.28335588134400
C           -0.50931983493811       -0.73993827770316       -0.30583587475102
C            0.52948722113435        0.17646280697593       -0.17130705115457
H            4.25629231034840        2.20291002722394        0.46202252088599
H            4.45041000210257        0.47861873560924        0.61039510828818
H           -0.02640924216605        3.50230931161022       -1.06721672053864
H           -2.32160000323057        3.10678026504744       -1.52104222314851
H           -3.62769816603851       -0.34782736427481        2.03741081965194
H           -4.12062114857941        1.27875364847690        1.69283913904610
H           -3.41471147299501       -2.11309027134625        0.63528600474869
H           -1.68835583329581       -3.85778751119187       -0.33130282448877
H            0.76180060101849       -3.71701010180990       -1.18056575801677
H            1.55274313645811       -2.23194521827720       -1.32892149684490
