35
 energy: -62.282172372672 gnorm: 0.000879103284 xtb: 6.6.1 (8d0f1dd)
N            4.84316535909050        0.21156300843097        0.83339157268007
C            3.77252603444237        0.62532484004742        0.76973524086363
C            2.47443359728307        1.14064063480334        0.75580191558099
C            2.09686277228281        2.40814566167925        1.33087493984799
C            0.77882500643023        2.61378409976008        1.08644998580582
C            0.23461853998672        1.44415928084703        0.44142411411138
C           -1.06776319331421        1.29660724941551        0.01968950280179
C           -1.91325277431255        2.43598586841449       -0.42059205649415
N           -1.45176096838912        3.69552628865635       -0.56319230286856
C           -3.15174275578052        1.95791316769395       -0.73392646295086
C           -3.16526966234647        0.55602539388583       -0.47244850017078
N           -4.25499157104128       -0.22275633202940       -0.61597989105245
C           -1.88450774950268        0.13684940511321       -0.05969423649382
C           -1.63702983045502       -1.16867401332420        0.51637106597519
N           -2.69112402047840       -1.67739238256056        1.24421442360261
C           -0.54154688495165       -1.96485861357579        0.30153458891206
C           -0.51773356576191       -3.23378476704076        0.90313799783306
N           -0.51106080743146       -4.27712404013073        1.39099382363396
C            0.57089737019826       -1.73289130332186       -0.62398375857728
N            0.79687594158799       -2.75339580696088       -1.49778327347086
C            1.39412200893291       -0.63662589437421       -0.61137265007591
C            2.47260533663852       -0.63133974649814       -1.51887090355541
N            3.31237652045841       -0.62828562924464       -2.30471528749988
C            1.34253927779388        0.52013903271479        0.25724586424372
H            2.77171565361881        3.05379045353221        1.86195424763556
H            0.18641886963889        3.42530391017604        1.46841451946922
H           -0.46075185632200        3.85625965535702       -0.49152637925196
H           -2.00082724678683        4.35207548619363       -1.09085290964226
H           -3.97996243412338        2.51745230413707       -1.12506750379605
H           -5.07694390657766        0.15471265936857       -1.05298390290691
H           -4.16110792861760       -1.22130235607407       -0.53941446145943
H           -3.28971293010066       -1.00956977435524        1.70283812799943
H           -2.51016538730560       -2.52355400533181        1.76466528933945
H            1.66039905754897       -2.75135785962989       -2.01879870292803
H            0.36714540366623       -3.64613418527451       -1.31981779134168
