29
 energy: -50.382963666418 gnorm: 0.000906006129 xtb: 6.6.1 (8d0f1dd)
N           -3.13250525886466        2.68507672250917        0.70762248754709
C           -2.57282153341885        1.69468169797339        0.50941404099562
C           -2.03949089277176        0.43980072273510        0.24987797164328
C           -2.88548654178342       -0.62679832404108       -0.17072345193494
N           -4.21605306396404       -0.51945425348484       -0.30928367325669
C           -2.11004683589260       -1.77093582123977       -0.39987314594881
C           -0.78768365126950       -1.47893478110033       -0.10201358644492
N            0.10993381316058       -2.41002098333934        0.11139272026235
C            1.40965001572810       -2.40786499034303        0.22272776526607
N            1.94287688692070       -3.32891566679592        1.06353818833422
N            2.29517859381652       -1.77725236574154       -0.55752320580486
C            2.41182681372248       -0.51224174048156       -0.79512795048185
C            1.78548680849171        0.60277750624573       -0.22137722180868
C            2.41174839462981        1.86325970257013       -0.18866750843952
N            3.70216172192160        2.14767268296642       -0.53571524047002
C            1.53108491091362        2.80000232067364        0.40612060829989
C            0.34369765365104        2.17534037599616        0.66837286245324
C            0.42353294226264        0.79822375267258        0.30103458460843
C           -0.69784553769314       -0.00788415244276        0.21473582577577
H           -4.75723557570212       -1.28498628960794       -0.66788988341240
H           -4.66772229590359        0.35606730514422       -0.10664121200027
H           -2.48296714104535       -2.73625067745736       -0.68148193992650
H            2.92045457253539       -3.54440757278195        0.98073478605730
H            1.32617604856802       -4.00268598813796        1.48227117940478
H            3.22725817984007       -0.29810137394671       -1.48778432011413
H            4.17026285298737        1.51357653012929       -1.16301574787372
H            3.92616790708749        3.12178910577089       -0.65833983349714
H            1.76985401100493        3.83032647678985        0.59797502448213
H           -0.52498454883647        2.63644678168191        1.09576237508879
