28
 energy: -51.452172205801 gnorm: 0.000516772662 xtb: 6.6.1 (8d0f1dd)
N           -4.73695739712097        1.56814163704953        0.87347795992377
C           -3.64776300793021        1.42992678250377        0.53497072763612
C           -2.30729269864791        1.26371669671153        0.12403529133158
C           -1.53326236490045        2.40809259406996        0.15388925110347
N           -0.41824537307848        2.69346873905391       -0.47442082375959
C            0.70623539034508        2.15245664114630       -0.75702033670988
C            1.30764566905787        0.98488007052834       -0.23832586983354
C            2.69006303309124        0.80056205311327       -0.16729665159589
N            3.66712153438706        1.70195183383754       -0.41078324466291
C            2.94707315911004       -0.56185079074053        0.22850035871150
C            4.23036147328614       -1.07567234648448        0.43431165527914
N            5.30623299312568       -1.44476058756680        0.60025905062966
C            1.74240911524630       -1.21726761009056        0.32883103120110
C            0.68116248104713       -0.29995686205119        0.06690809190797
C           -0.61276773416090       -0.76749649930411       -0.07071364508098
N           -0.80101269736207       -2.10887824434938       -0.11068249378975
C           -2.09946292955822       -2.32336588641127       -0.27715195504170
N           -2.60543699025547       -3.55323996232359       -0.40665372156681
C           -2.84907819406208       -1.10005976143535       -0.30255683197072
C           -1.94020413232736       -0.08491140339167       -0.17117516749292
H           -1.98161519839340        3.28187072712038        0.62301099781521
H            1.31350959909935        2.74647683751331       -1.44045714907426
H            4.61908138086371        1.46098684701316       -0.19540607858616
H            3.44192658099409        2.66682972087921       -0.57060197949517
H            1.58615549745255       -2.24852491953432        0.57613282578322
H           -1.98380677769787       -4.34175008266478       -0.36709146193925
H           -3.59072794908198       -3.69326540958342       -0.53761273360033
H           -3.91478304042942       -1.01812241850859       -0.38913922502178
