26
 energy: -43.993440651395 gnorm: 0.000686243059 xtb: 6.6.1 (8d0f1dd)
N           -5.22089637879870       -0.12461155386132       -0.35168941086587
C           -4.08181472021074       -0.18605878925339       -0.23563017959217
C           -2.66801361627141       -0.26283531239430       -0.09457823854068
C           -2.21738966908526       -1.57159570960706        0.11544418116022
C           -0.97332147540757       -2.15701840175803        0.21541203803077
C            0.35365428376912       -1.74847990973826        0.09760052517341
C            1.34698918535687       -2.73295566868868        0.08786684758161
C            2.59429121094337       -2.14930512689131       -0.08104915281475
C            2.44157015760681       -0.76122422456899       -0.13404248101960
C            3.54661535884918        0.06298505145912       -0.36856866121347
N            4.51130732865683        0.65055204121213       -0.58558699574626
C            1.05533548031930       -0.43288366201825       -0.00591033426526
C            0.60219646098860        0.86853346336154        0.09793433864332
C            1.48245137458978        1.96422830526820        0.25246989838221
C            0.77319411074049        3.14806464670273        0.22500082291581
C           -0.58140351425743        2.86061442152523        0.03834048275471
C           -0.76982207687591        1.47741585553470       -0.00627834709553
C           -2.05619152658935        0.98837113109638       -0.15304709056749
H           -3.03637175009792       -2.28074267374761        0.19234464874878
H           -1.03515498061503       -3.23074853451732        0.36827243314572
H            1.16265749583952       -3.78857257083807        0.16347793621585
H            3.53335439880581       -2.66588765969629       -0.16628330393791
H            2.54103097265006        1.88968611046589        0.39750906912596
H            1.19431131583213        4.13096065312146        0.33322250704315
H           -1.36992182284425        3.58725988749065       -0.02898680508367
H           -2.77829316789475        1.78996067824148       -0.29388008887872
