27
 energy: -46.912377002749 gnorm: 0.000848084198 xtb: 6.6.1 (8d0f1dd)
N            4.35853466185793        1.65533702113638        0.67239912687394
C            3.29795946834381        1.31464590544494        0.39712695360441
C            1.95686643359247        0.97134584543167        0.08563280194709
C            1.11834377577763        2.07836498397896       -0.07550382499156
C           -0.20020018766367        2.27125036292194       -0.41505433999880
C           -1.37569191086608        1.49217992921138       -0.46904184744260
N           -2.45790281378782        2.18071552103907       -0.92891720671754
C           -1.64970286798746        0.18482161725483       -0.00395646305408
C           -2.94194301043309       -0.25417100947940        0.32491813947491
N           -4.09189404459418        0.50342482755823        0.46949055250242
C           -2.92740479333862       -1.66080548612437        0.51651685450880
C           -1.66215457541980       -2.12267053647831        0.29510091294322
C           -0.80148069757343       -1.02237877570591        0.02066852878766
C            0.54033539348894       -1.25607844282395       -0.17317650521046
N            0.98859762439733       -2.53644798177569       -0.27152713513069
C            2.30088645178647       -2.44547853075334       -0.28493592398412
N            2.81345363877418       -1.21206041485992       -0.15496865618200
C            1.75803231733595       -0.40039058950751       -0.10724802335877
H            1.66852308976086        3.01163278338919        0.01555858642197
H           -0.41225618599014        3.31011397944145       -0.65505418104373
H           -2.31778842506425        3.08177360753812       -1.35371294478908
H           -3.28942986188368        1.67106445515395       -1.17657481455113
H           -3.95778845288102        1.43664252923401        0.83231604996310
H           -4.83601351694912        0.00714887668840        0.93939244433890
H           -3.78758740292463       -2.24300753705950        0.79422170355711
H           -1.31014648506967       -3.13293611488525        0.35621628287272
H            2.93519666611236       -3.30719476507169       -0.38844316114235
