30
 energy: -54.878970019792 gnorm: 0.000712325231 xtb: 6.6.1 (8d0f1dd)
N           -4.80256182329752        0.59362514049031       -0.84971185579342
C           -3.88673411826219       -0.04256805177477       -0.56871121581077
C           -2.81605962689253       -0.87288641061838       -0.23822354430831
C           -2.90145602853383       -2.27266487204312       -0.13400354851750
N           -1.74460058649380       -2.83771870495502        0.17310257356679
C           -0.81038188894866       -1.86247713465482        0.21334616773541
C            0.45488533017083       -2.24049636837170        0.59785226988055
C            1.74688737158003       -1.69488277400939        0.50844100230227
N            2.71684661165803       -2.49844331717378        1.01153325782510
C            2.21331313205493       -0.51853513696092       -0.14114044086502
C            3.56763908675423       -0.60287512934458       -0.52537471058395
N            4.67189362120375       -0.66873638258825       -0.84730121567019
C            1.62793734319260        0.74726982777726       -0.39586954616953
N            2.40030991304709        1.62732758136029       -1.06737067786159
C            0.39957262381711        1.27806384353115        0.07347115729319
C            0.21718098965491        2.64874952266558        0.33738798712772
N            1.15314135157238        3.65696206908538        0.38309765913144
N           -1.07865491130113        2.95603110213826        0.60043720500814
C           -1.77099184507568        1.85464092144559        0.44266433772356
C           -0.94512281562785        0.72590589927654        0.14653119387645
C           -1.45567746839131       -0.54541025345528       -0.03434694040412
H           -3.78497385058204       -2.86914416472309       -0.27912724448605
H            0.45160001417825       -3.26606854316288        0.95563942730482
H            3.68933862198604       -2.26653619453993        0.89307400510760
H            2.48440906113810       -3.42394093653918        1.32816463620723
H            2.02857089358979        2.53303052092151       -1.29981365062511
H            3.30735565808553        1.36145596152083       -1.41420789547082
H            0.76409028287282        4.50173489779552        0.77886138098071
H            2.05968782525786        3.41565202949600        0.75745190459120
H           -2.83131738340827        1.84060697290903        0.60495664820500
