29
 energy: -51.167683336048 gnorm: 0.000852731542 xtb: 6.6.1 (8d0f1dd)
N           -1.54373750129173        3.93147927660301       -0.96287037650248
C           -1.04488549489349        2.94985449279717       -0.63866128759858
C           -0.42035406642280        1.73464639684019       -0.25482380476463
C            0.95359757657350        1.82046858095234       -0.21654530017310
C            1.98945341845556        0.96873917810102        0.20288032143158
C            3.17460150554962        1.69847091909856        0.46440895863295
N            4.13647568667123        2.28990616265037        0.67939398466039
C            2.12299926225813       -0.42803089169818        0.34193224680500
N            3.27296830914771       -0.85851799627302        0.91022828186231
C            1.27729689727496       -1.46409965758849       -0.15606110733273
C            1.79936355792313       -2.69484553478373       -0.53394891779272
C            0.74939602007224       -3.59057592910169       -0.82844848251635
C           -0.43674057560417       -2.96247172691480       -0.57159238708496
C           -0.17788765039202       -1.60964612879508       -0.19771734539499
C           -1.23416381581865       -0.76970000567061        0.09585089796868
N           -2.45004317059413       -1.31227178358351        0.30905435792819
C           -3.31151663908758       -0.30962372517394        0.46686847492251
N           -4.60121640273273       -0.52449261214237        0.74352999241233
C           -2.68556727967787        0.96410830415015        0.30167198126933
C           -1.35260871846532        0.71613773664749        0.08580420170186
H            1.31985180383353        2.81594218239016       -0.46177780732194
H            3.45823336309980       -1.84268694212921        0.97635533813660
H            3.99653279398152       -0.20429741635665        1.16021070443420
H            2.84149147959221       -2.93169755251147       -0.66160751434444
H            0.88053387431823       -4.59464625707715       -1.18791184252740
H           -1.42745170095317       -3.35677113196086       -0.67743795724625
H           -5.23927265048044        0.24278886024441        0.85189969745865
H           -4.92656676411894       -1.47078895146398        0.83402606176270
H           -3.17727088171749        1.91584747505015        0.34885133911221
