27
 energy: -46.120285098629 gnorm: 0.000695994093 xtb: 6.6.1 (8d0f1dd)
N           -4.50179243932931        0.99151127989913       -0.64233384234619
C           -3.27709486420979        0.54774990610988       -0.33387177403407
C           -2.16106732440832        1.36024242299548        0.02223374700224
C           -1.09268087840879        0.50977436139706        0.17383412122334
C            0.26549871734036        0.84600079964931        0.25548192754727
C            0.69271222067574        2.16884868227521        0.44268758179088
N            2.00988610702289        2.31454236472450        0.31233634811368
C            2.49128382444974        1.11752154015784       -0.03865523600508
N            3.85780537428103        0.97930730068601       -0.26805742417645
C            1.48492366169680        0.11615510948822       -0.09090612942894
C            1.76670665050083       -1.22118720236502       -0.43762493917930
N            2.91934253259595       -1.43479038473860       -1.12266150867197
C            1.15171952452639       -2.39202917544954        0.06709908470031
C           -0.09156642150976       -2.58758618032397        0.61862432999483
N           -1.23193851235309       -2.00645781705059        0.35037410476678
C           -1.70552599318996       -0.86587828068321        0.01167099855602
N           -2.98965168469866       -0.75612583776357       -0.37643294371800
H           -4.74899298499122        1.95524870814075       -0.51059376534173
H           -5.21005900513249        0.31659618988138       -0.87126838580438
H           -2.17225098977521        2.43069791299662        0.07499034915115
H            0.08096496246526        3.01121342087084        0.70580777982542
H            4.27540910866860        0.18409701709430        0.20033960550770
H            4.32579936724051        1.84173083148250       -0.01587177868175
H            3.14144904717501       -2.36375687098888       -1.43491719424876
H            3.38838965173697       -0.65091772982526       -1.54599503341616
H            1.80773894959181       -3.25638580071589        0.07802601044880
H           -0.22054372106359       -3.48116768714301        1.22748988982520
