25
 energy: -43.484634171373 gnorm: 0.000389452127 xtb: 6.6.1 (8d0f1dd)
N            4.94619794753906        0.31159657760211        0.01081055471971
C            3.81593413018218        0.11227827904395        0.00797272077965
C            2.41542086978297       -0.12280879453869        0.00539263772311
C            2.09269206199259       -1.46890908401483        0.00730667543782
C            0.90501649205632       -2.19853386582026        0.00471037901884
C           -0.43519709554122       -1.87923655814626        0.00232593629726
N           -1.31320991580621       -2.90659478337388        0.00090537232208
C           -2.51171037001106       -2.34828958945870        0.00136837999879
N           -2.54748761750848       -1.01860032070573        0.00317910322702
C           -1.24905777778702       -0.62146800486631        0.00314405273522
C           -0.93519398639613        0.71806296659872        0.00277222997867
C           -1.95199919732813        1.71742634080284        0.00200234966630
N           -3.26247301652245        1.46341296344156        0.00639672141650
C           -1.33891008510909        2.99150688097135       -0.00268925390610
C            0.02406036691797        2.83250059854862       -0.00444606845500
C            0.36792781221677        1.45580363535493       -0.00055558850074
C            1.68122088303754        1.09570594071365        0.00038026005881
H            2.97384340622024       -2.10520365200285        0.01086166203007
H            1.04497274292749       -3.27385467854114        0.00525976664094
H           -3.41448825969431       -2.93345040788386        0.00043324087396
H           -3.93442806267991        2.20918793494834       -0.00068807837170
H           -3.50943737055833        0.47076968082260        0.00511888150522
H           -1.87127448138318        3.92553395185763       -0.00460829384041
H            0.74680491402534        3.62818445679309       -0.00781419775858
H            2.34859685382703        1.95533387665315       -0.00259925769743
