30
 energy: -54.899760622037 gnorm: 0.000660908323 xtb: 6.6.1 (8d0f1dd)
N           -0.45998855794248       -4.46209110071535        0.36413927818797
C           -0.24743968455520       -3.33834699963048        0.27255662599444
C            0.08042229985048       -1.96242703616049        0.16105392336136
C            1.42524121374336       -1.73614636060209       -0.16027686317547
C            2.26103318776598       -0.64588418525074       -0.12840833748655
C            3.59123653744895       -0.98003744396034       -0.47949867342168
N            4.66857984501139       -1.24898119673497       -0.77840644731522
C            2.11218623555200        0.74732583612865        0.25020082745416
N            3.25366319042722        1.26833851831536        0.76326179530209
C            1.03732249920560        1.61111217569531        0.05387116265773
C            1.24309083252560        3.00944238321111       -0.00721368850501
C            0.06714000992729        3.66867293758977       -0.29495232433571
C           -0.96354648279597        2.72625067780804       -0.36523801613256
N           -2.25619176049831        2.97568186231337       -0.62187951194519
C           -0.40974331068080        1.41353118063115       -0.15253469374216
C           -1.25187267571580        0.33391833778800        0.02229898366347
N           -2.59612817831437        0.50051958225889        0.02334840435574
C           -3.10946784563200       -0.69510558764318        0.33845461485762
N           -4.41868891130748       -0.90853734396041        0.48260370182844
N           -2.21455695264536       -1.68424953365993        0.50413128493133
C           -1.02539504449823       -1.12267688865932        0.28525907206337
H            1.94165927215009       -2.65597975104788       -0.42885460143211
H            3.30916960145550        2.24301632780881        0.99523011630589
H            4.10524526977208        0.73197912363158        0.74485516865021
H            2.19162566397449        3.51185974049641        0.06313581347247
H           -0.04657602542791        4.72704771652308       -0.43919555126640
H           -2.58829217665688        3.92384348564975       -0.59909289488362
H           -2.87384503398498        2.17886722976605       -0.46398413364068
H           -5.07636934748256       -0.17683781681764        0.28542803344371
H           -4.72906218866960       -1.84329459907358        0.67687149194992
