29
 energy: -55.953234708723 gnorm: 0.000448922974 xtb: 6.6.1 (8d0f1dd)
N            4.85984302383775        0.56353156132444       -1.25381900411336
C            3.81133103764307        0.40329470654473       -0.82047649949112
C            2.50304815381591        0.15008603407656       -0.32435367810296
C            2.14665921066078       -1.18966086000849       -0.33212850573995
C            1.05789868430650       -1.92643297725550        0.13878703930861
C            1.37656940772645       -3.30503233859658        0.23775068027152
N            1.62589722067265       -4.42327590506989        0.32043617110477
C           -0.29457817825903       -1.63227874470652        0.47190285842095
N           -0.97685843981474       -2.63725221963513        1.05843812531208
C           -1.07260694453032       -0.49013003145162        0.13303548647561
C           -2.45050741504511       -0.56989648415036       -0.09633673360226
N           -3.24037609517281       -1.68039419850114       -0.24268780678228
C           -2.98356759341096        0.76521002968695       -0.17974921481012
C           -4.32936552964058        1.03273169113763       -0.45591764484204
N           -5.44182831187519        1.18535287768201       -0.69655732091279
C           -1.96315756042426        1.65978199809733        0.03727339961893
C           -0.74610217749899        0.93943073018646        0.18863537896561
C            0.42519192481199        1.63161804402916        0.40175504544977
N            0.38835334087169        2.95601173664529        0.69517144811360
C            1.64274008824368        3.34976925758914        0.68528620168117
N            2.54989548748495        2.42012278194990        0.32997959814183
C            1.85958075861759        1.30116105233084        0.16564466277749
H            2.95090221461097       -1.83028037399724       -0.68936686381334
H           -1.91975538382460       -2.48779829244882        1.37592155208149
H           -0.50926326418723       -3.49554251402788        1.30459478932125
H           -2.80966397794083       -2.51666080176731       -0.60741350761946
H           -4.16380404805175       -1.49667604200206       -0.60910231849618
H           -2.02371018701627        2.72987535900041        0.04972112810575
H            1.93552659988898        4.35238767643916        0.93623286417576
