29
 energy: -50.372314743490 gnorm: 0.000542677379 xtb: 6.6.1 (8d0f1dd)
N           -4.90774315901687       -0.22907901201035       -0.77418962196087
C           -3.82171896993798       -0.50891910008866       -0.51663096598016
C           -2.51083041902339       -0.86161597633071       -0.21256674165172
C           -2.00821328668812       -2.18188984955379       -0.04167102609571
N           -0.74457337415893       -2.21528937354538        0.28003605928205
C           -0.27924783169227       -0.90693735441733        0.25978665336260
C            1.05702492820290       -0.64065116348588        0.17590892264669
C            2.04691331706499       -1.73209147561333        0.32762460390089
N            1.69936263186389       -2.96794955834498        0.70749457650589
C            3.29572648765597       -1.22381911653542        0.09377464769694
C            3.16377978604208        0.14837752307172       -0.24364663031176
N            4.22800271215539        0.91408940327895       -0.57635906626792
C            1.81031851448472        0.54457672084756       -0.19587583102756
C            1.43842631153942        1.84850114969656       -0.60336828551896
C            0.33761376094282        2.62953176724358       -0.45979477124577
C           -0.86979378440245        2.35497193753722        0.27689108543965
N           -1.37958472888923        3.40147210131077        0.97644374910326
N           -1.57324437934785        1.27558795920356        0.30881462767798
C           -1.43859878667505       -0.00355025854428        0.06327490525084
H           -2.57973356107167       -3.08956294234651       -0.13625627041908
H            2.38183738139831       -3.70528738196220        0.67979956957804
H            0.69331353622256       -3.15429037643794        0.66732392868791
H            4.22648591878743       -1.75675841543227        0.15178337296088
H            5.14979663316596        0.53468250598486       -0.45702926019341
H            4.13884987747768        1.91101008756284       -0.65358405032978
H            2.25525757105798        2.36429300392751       -1.10168544067495
H            0.41956601444682        3.65316303499620       -0.80397344608741
H           -1.01651179329930        4.32748992751453        0.84288566510704
H           -2.27943148831119        3.28955957636425        1.41085724656055
