30
 energy: -54.886799494308 gnorm: 0.000858181183 xtb: 6.6.1 (8d0f1dd)
N            5.15743891275242       -0.49764510980413        1.06338547550938
C            4.07798467888483       -0.50806196713573        0.67341569253036
C            2.73654237121224       -0.60032822276244        0.22418603509474
C            2.30087988690473       -1.91776716759663        0.02619471956536
C            1.13737110317402       -2.51227364631761       -0.38836032076180
C           -0.21657710880033       -2.12357572479607       -0.52899383724044
N           -1.01058725175596       -3.12774351998602       -0.98454459065341
C           -0.89610179462313       -0.93571052629934       -0.17106018130234
C           -2.27660108017870       -0.91403719397886        0.08415135074834
N           -3.12555953353973       -1.97787309764749        0.28789194610056
C           -2.74358197699637        0.43054122356472        0.11193294049160
C           -4.05596131653402        0.80770947102304        0.38537871212929
N           -5.14513605754030        1.09227232795342        0.62548187575961
C           -1.66879149743279        1.28169139147733       -0.15713669021137
N           -1.69959832672291        2.60711529143874       -0.27433725471375
C           -0.46381675325654        0.47492398979592       -0.24826843683808
C            0.75866578167219        1.08665036284643       -0.33035468823086
N            0.84175579107385        2.44940245868195       -0.49207220975889
C            2.11337159618752        2.74611087122795       -0.33809319205034
N            2.92777742789020        1.72443898472162       -0.05613103576224
C            2.15359527567831        0.63775774739728       -0.06177340278787
H            3.10776934990388       -2.62999437406292        0.17965237831226
H            1.26421935709236       -3.57010681595154       -0.59997714085805
H           -1.95613971288646       -2.92917971078948       -1.26501795836027
H           -0.58956871315004       -3.98176864888308       -1.30831090206377
H           -4.02804165145397       -1.71300106179685        0.65857830998421
H           -2.72903155079644       -2.79151329254834        0.73434804081617
H           -2.54341447778692        3.11597164011800       -0.07382201102039
H           -0.78007125125552        3.04426555875930       -0.40886276486106
H            2.48060364378449        3.75243736594967       -0.42976492146453
