30
 energy: -50.079609089159 gnorm: 0.000934031768 xtb: 6.6.1 (8d0f1dd)
N            4.21861492018230       -2.76972594561188        0.50171861152785
C            3.25846827097638       -2.19495681508357        0.23623547413431
C            2.08654709716344       -1.47955599403261       -0.09536773234803
C            1.15025711965614       -2.26970160408127       -0.87038282742857
C           -0.18471401646362       -2.23655762884422       -0.99355305041852
C           -1.20958408079420       -1.42869610723394       -0.38076827370712
C           -2.47643108384885       -1.91004643644475       -0.24225994117207
C           -3.32227135549575       -0.89301017528053        0.33924623642106
N           -4.64095878778159       -1.08375737412544        0.63529732632627
C           -2.58725637439748        0.25528221356848        0.44951273916350
C           -1.24315736582978       -0.01250025327699        0.02686863011562
C           -0.25699718670828        0.94041551099325       -0.04076920364249
C           -0.53936734071652        2.39106211573673       -0.10869233813731
N           -1.74442414663852        2.94634585064986       -0.33386623572824
N            0.54705355702861        3.11871548255458       -0.03102101898680
C            1.58380474130166        2.23590453589438        0.11939495606802
N            2.82734039753315        2.72607390511111        0.30769670939282
C            1.17775459493557        0.89294004654223        0.04921355941994
C            2.09404061232934       -0.16694538324726        0.26766141539383
H            1.64914577018842       -3.08038820511861       -1.39408916980450
H           -0.61143680747344       -3.02465690396819       -1.60637447262031
H           -2.81225411002565       -2.89943084694519       -0.49754451045076
H           -5.08101905669280       -0.40621923433054        1.23636074354602
H           -4.95298544066708       -2.03381059245238        0.74858529270895
H           -2.91413206554284        1.15748823275490        0.93079316303465
H           -1.74157942416885        3.92141499316044       -0.58540382168473
H           -2.48358161205408        2.35986701804126       -0.68413581048737
H            3.62740653341810        2.13432070193635        0.17379246097069
H            2.94186177741422        3.71924295753716        0.20860375283557
H            3.00559873667258        0.15188109649745        0.76855361285815
