32
 energy: -59.117401007625 gnorm: 0.000997145284 xtb: 6.6.1 (8d0f1dd)
N           -5.57234933083655        0.75834633191897        1.07208265851303
C           -4.47921665566443        0.69811536467600        0.72222698729563
C           -3.15141083369121        0.55611100801204        0.31096819910699
C           -2.25445189838792        1.53835281425558       -0.02714111107838
C           -0.98977974323059        0.93097077874460       -0.29981354847320
C            0.11024090191983        1.66893542525934       -0.69084936971565
C            0.08034825855386        2.97749695734475       -1.22035099210350
C            1.38501237011143        3.40849005847922       -1.27559737635973
N            2.23691150406523        2.53121404551021       -0.69238933307785
C            1.55071647705060        1.45573355162061       -0.36587205366553
C            2.16541491691103        0.47086430009352        0.44380988177735
C            3.27164538521213        0.97429524114933        1.17070591960428
N            4.15475111524377        1.33805449709692        1.80870193921555
C            1.96517087509499       -0.91031662165142        0.52881335110631
N            2.79634902779436       -1.61128809264567        1.33510540640783
C            1.06626560218753       -1.71984832023873       -0.25758695684495
C            1.63211812978862       -2.95523337869428       -0.63217744994652
N            2.08454962886526       -3.96648618717749       -0.94557901975930
C           -0.27977740750925       -1.55864011704428       -0.57637919773342
N           -0.89229285691389       -2.57316562004784       -1.23669634989336
C           -1.16321453957063       -0.50345691443409       -0.15880247430773
C           -2.49176727961346       -0.72529083926387        0.18677459962789
N           -3.14621818075410       -1.91055937054390        0.38121950070138
H           -2.43830129103890        2.59504617121258       -0.01752672241462
H           -0.78188255428079        3.48086440447050       -1.61038337604155
H            1.76958823374571        4.31448908444732       -1.70723530624147
H            2.80247847349366       -2.61744470242757        1.30038835851964
H            3.57550668769878       -1.14308469506340        1.77111244809075
H           -1.82339653157468       -2.43896581814109       -1.58986089811372
H           -0.34699884340193       -3.33917631037643       -1.59719791139408
H           -4.03206375587784       -1.84938299331838        0.86005608449975
H           -2.59082588789150       -2.72154663502421        0.60294894989651
