34
 energy: -61.787156731453 gnorm: 0.000705125589 xtb: 6.6.1 (8d0f1dd)
N           -4.45267661958629        2.15104191093707       -0.34214851816689
C           -3.57162139202693        1.41513598662386       -0.24986952013014
C           -2.53991435654206        0.48621355365224       -0.16673541181896
C           -1.19365549330905        0.73684241536646        0.11738316829065
N           -0.76782263572086        1.87830508065017        0.64809448475546
C            0.22248419208565        2.66190984147577        0.43956464490804
N            0.36592489432000        3.72085557298588        1.26493047900169
C            1.14956823473309        2.57788715954375       -0.68346807510815
C            1.89129261041532        1.48416810501857       -0.93839910500375
N            2.85569614867438        1.51526693736187       -1.94281159220532
C            1.92289457092418        0.26542892172220       -0.13097243006859
C            3.12487443725430       -0.36908739192312        0.21200475514511
N            4.37746569475921        0.11972934278474        0.09287054511080
N            2.93295112148739       -1.59359722570160        0.78816884867477
C            1.63958352639273       -1.81752311779843        0.75359181855048
N            1.09817035822380       -2.88191748963651        1.36057527730645
C            0.89652389097941       -0.66484638100634        0.19308770996091
C           -0.47624934511368       -0.54043764459953        0.07687922349212
C           -1.46633699398429       -1.54932354409313       -0.17188068687874
C           -1.29627293307915       -2.91082887945903       -0.35573295095796
N           -1.21280998908523       -4.05430709373186       -0.50702341902755
C           -2.70507784953717       -0.91938229598597       -0.36692622453092
N           -3.86948660361623       -1.51891483161469       -0.67568121422694
H           -0.26373793172838        3.82671509239106        2.04066025729985
H            1.12304752733253        4.36675918068021        1.14495404759371
H            1.27411087960670        3.47099294978752       -1.27988556693165
H            2.73522423408231        2.25235524098604       -2.62235143266936
H            3.06311061103762        0.61910864648003       -2.35868112864129
H            4.52267392020713        0.94113618329038       -0.46876310944225
H            5.13823074904066       -0.51541138909917        0.25596999383868
H            0.18126232834062       -3.20610045079452        1.09584211344024
H            1.74978097218612       -3.56227270562451        1.71598932326812
H           -4.68637589029326       -0.96183941514474       -0.85364305615466
H           -3.90137811425853       -2.51121872912473       -0.83038339637344
