34
 energy: -56.970679776204 gnorm: 0.000892067043 xtb: 6.6.1 (8d0f1dd)
N           -3.58146777387990       -2.55593976549260        1.03378834454572
C           -2.62517603317690       -2.04701331013504        0.63734779247242
C           -1.44361394051570       -1.46558698962802        0.15534191919531
C           -1.55672817391114       -0.09664252365711       -0.23713732180117
C           -2.76439883823134        0.49227198840617       -0.50218415025679
C           -2.58288418431036        1.90421353186807       -0.61901290148281
N           -3.57775775165186        2.78387423908342       -0.91293491480326
C           -1.26389555714858        2.20440803598845       -0.33381508242773
C           -0.55133987712492        1.00133612729233       -0.12029288877519
C            0.78777611656815        0.95108819932714        0.21730812421865
C            1.50196533079620        2.07171624392639        0.81608118586251
N            0.90761836351386        3.20480860812178        1.31693948076338
C            2.84081761949557        1.77934527186959        0.85518790061734
C            3.04132639351474        0.51435092471984        0.24600925296025
N            4.27997667118517       -0.04395188759437        0.02931830169042
C            1.80246686396327       -0.03581000944780       -0.09002985437294
C            1.63163284350216       -1.24100428083443       -0.84304184125623
N            2.61530015947239       -1.54419117988224       -1.75067378938189
N            0.74654364932578       -2.16540200368337       -0.66946178420617
C           -0.32792583961218       -2.30919345800764        0.09994284537490
N           -0.38068698213441       -3.50543367116516        0.75941952483513
H           -3.70431109608334       -0.01671826237145       -0.61077684839393
H           -3.31946025878773        3.71852195453738       -1.18097329027407
H           -4.42391946958889        2.41733252431768       -1.31491465304417
H           -0.81586170269042        3.17440122273144       -0.43587107276004
H            1.45967649291325        3.70700758406932        1.99598824980652
H           -0.06736785837064        3.10476647805046        1.55910355319262
H            3.61804757558951        2.39648332267728        1.26795136580415
H            4.29134132291643       -1.04431274992695       -0.09988575175145
H            5.01624148098287        0.30885354023133        0.62104202174663
H            3.13310402172806       -0.77498150249591       -2.14141509594958
H            2.41835192886773       -2.31767460288669       -2.36536747561371
H           -1.27444000989921       -3.82473404474770        1.09708339518821
H            0.30047047928101       -4.20056940705637        0.50367973117572
