32
 energy: -54.318921235965 gnorm: 0.000710277234 xtb: 6.6.1 (8d0f1dd)
N           -1.69770137256325       -4.97173777441782        0.43415100084880
C           -1.46812660764245       -3.87416426407930        0.18088388692129
C           -1.17531177900299       -2.52791048638237       -0.13465029210316
C           -2.19954755338858       -1.90674223983783       -0.93843211455318
C           -2.59458327874494       -0.62873847326895       -1.06637709770612
C           -2.18131650422805        0.58482558433467       -0.41827799980147
C           -3.05493775316908        1.62060687700796       -0.27862157077588
C           -2.38700199281032        2.73882016108998        0.34471985676018
N           -3.00553967335205        3.90411811333044        0.66941515787987
C           -1.05934132931151        2.42201224285124        0.46959294685820
C           -0.85668320192904        1.07726593095743        0.02632301099753
C            0.38124783992246        0.48070143477332       -0.04280555072356
C            1.61035579161983        1.26857327589384       -0.08707768428220
N            1.69624818366904        2.60323041494896       -0.30990302482285
C            2.69185448188615        0.41384935566170        0.04367704931230
C            4.03773654478178        0.76192508817844       -0.01406276234544
N            5.15295227000710        1.04263503875857       -0.07489959318560
C            2.18752424929379       -0.92504722066444        0.19327584857891
N            3.00274553785480       -1.98426122512538        0.40671244089479
C            0.79494766505780       -0.91149190125526        0.07636119953995
C            0.05551770874932       -2.10244428518038        0.27565846903136
H           -2.79376916865812       -2.63876440292311       -1.47754773847253
H           -3.46386878499562       -0.47382364456950       -1.69755736066757
H           -4.09322306650089        1.61667988922531       -0.55796582331166
H           -4.00969872004468        3.90376825850689        0.73167481591831
H           -2.51982353760422        4.54503871892069        1.27459936044528
H           -0.32762506554869        3.01738231243339        0.98122084177823
H            0.89264010959652        3.06469331059408       -0.70527757890660
H            2.60442509818581        2.96181749152130       -0.56074214192944
H            3.99661073986894       -1.84422874794628        0.35378356092420
H            2.65105824026305       -2.92063163265831        0.32259742969620
H            0.62575597793775       -2.87004817317874        0.79483446560268
