25
 energy: -42.675484727167 gnorm: 0.000690179423 xtb: 6.6.1 (8d0f1dd)
N           -3.27334988419346        1.42423405679141        1.08068138843788
C           -2.32862798338647        0.96691631148971        0.22930100254286
C           -1.74068325954664        1.94889678709528       -0.65984244796398
C           -0.42608789925901        2.09954459031113       -0.92755653209785
C            0.73086260679971        1.42333974670305       -0.44955442714771
C            1.97150778638167        2.03417782749944       -0.48964421235129
N            2.97914472418469        1.27603426714186        0.01515909183649
C            2.44616934070468        0.11205711364862        0.31351996669682
N            3.17822548898084       -0.89657110485727        0.83978616474650
C            1.00557749731249        0.07137472956844        0.03828359348699
C            0.25916360209949       -1.07284807974714        0.01723901443359
C            0.68226724577146       -2.41987442823059       -0.09830865660873
C           -0.43014088110213       -3.13877219305741       -0.46533005292939
N           -1.58080956538972       -2.41653689736296       -0.48060957383150
C           -1.24532018460230       -1.18415283313798       -0.15581181193299
N           -2.12888346922197       -0.30167259305795        0.21719187591575
H           -3.51719854900225        2.39706592981280        1.10646483470897
H           -3.73334055412696        0.77610634536651        1.69575343716870
H           -2.43123738341844        2.68702689979223       -1.04563285564928
H           -0.17145174867308        2.96570022578064       -1.53074433973855
H            2.18610790674250        3.02916097930176       -0.83723862387961
H            4.10942889146159       -0.64681279102265        1.13068328111361
H            2.70374604199673       -1.61455902625979        1.35991287886599
H            1.68644211744445       -2.79232320934485       -0.07429538017518
H           -0.46699866835826       -4.18167516592456       -0.73032795064837
