26
 energy: -42.411476661588 gnorm: 0.000532986312 xtb: 6.6.1 (8d0f1dd)
N            1.24306250827515       -3.45539176335207       -0.64274420761648
C            0.97773000047823       -2.26931754724282       -0.03313419691379
C           -0.40222619341659       -2.00751055689648        0.22571434788291
C           -1.09581277982080       -0.83540684193791        0.25488445653216
N           -2.44472221344286       -0.92768561459637        0.41311890933859
C           -2.94038438849407        0.27818786261055        0.17188659111043
N           -4.26490120017404        0.51837346651366        0.19482639478564
C           -1.92813412359843        1.23129453630679       -0.13973234187633
C           -0.71772320168096        0.58172084087859       -0.05690184332000
C            0.53915810434722        1.21517081517823       -0.19993305041107
C            0.66463918431051        2.55429740356100       -0.56902813474508
C            1.97438957021041        2.99056893553129       -0.33334142554453
C            2.68603309718310        1.95555054403376        0.23246056029244
C            1.85826636412446        0.80758955639420        0.28867036188632
C            2.35454183222351       -0.41021925037880        0.71760781829816
N            2.02527840736517       -1.63091964014212        0.39151775826177
H            0.49940854631561       -3.99986850774503       -1.03907286838135
H            2.19509696413862       -3.67216707764345       -0.87998696674787
H           -1.02717970890675       -2.88790589050894        0.31759873819393
H           -4.60210302155195        1.46294939083290        0.15339320065518
H           -4.86786150584431       -0.20015851858641        0.55492160766555
H           -2.10890735858078        2.26781135596647       -0.34376136731698
H           -0.12096096994869        3.16765214681283       -0.96948264624554
H            2.34775859010153        3.97756748659010       -0.54184953432741
H            3.72053712269390        1.97279382799611        0.52435817054582
H            3.29153606219295       -0.37339142437567        1.27296278869750
