29
 energy: -55.984393171630 gnorm: 0.000575808520 xtb: 6.6.1 (8d0f1dd)
N           -5.78934932682857       -1.77313047760148       -0.10581803019113
C           -4.72007012440189       -1.35578324491754       -0.09705262338599
C           -3.41787474083079       -0.83678025525588       -0.08941865507986
C           -3.07180649873591        0.50703869673339       -0.37679653233622
C           -1.70175501193737        0.67946577995365       -0.22082441717744
C           -1.13618180140214        1.94407966488930       -0.48565628420212
C            0.03963192458956        2.55013520856285       -0.13435207433022
C            0.19012082729041        3.91193555443053       -0.47023666595028
N            0.33250860956215        5.02445779317066       -0.71780315729488
C            1.12611846240880        2.00870632212511        0.67479094256597
N            1.66631208388160        2.84442622357477        1.58405997621038
N            1.68735882883210        0.85877048819586        0.53571408632605
C            1.43415425072337       -0.35144567267696        0.13071182506024
C            2.39796224981621       -1.31169303289085       -0.17703447156710
C            3.76711815652255       -1.15769547442210       -0.36550340347162
N            4.90278728801328       -1.08298661929055       -0.53215584430500
C            1.70443885297324       -2.56880638013123       -0.16523498160495
N            2.26071149367400       -3.76100001225806       -0.35837392719141
N            0.39556948089979       -2.42961849834325        0.07214735715664
C            0.14039578169178       -1.11914680750030        0.16527589826360
C           -1.15643299789465       -0.63910210346511        0.12560351482585
C           -2.25428539400006       -1.53529188630647        0.18079468543937
H           -3.77188984932248        1.27462324330942       -0.65312575042020
H           -1.83016042721191        2.60811751613711       -0.99501029017298
H            2.49240335449815        2.55004647220931        2.07813758225833
H            1.40708155290286        3.81642706878314        1.60079298609199
H            1.68595075448405       -4.58397682080799       -0.29620421383474
H            3.23814470567173       -3.83880165799465       -0.58243786949546
H           -2.16180045366896       -2.58044609021442        0.40211162941352
