29
 energy: -55.193985102893 gnorm: 0.000893389269 xtb: 6.6.1 (8d0f1dd)
N            4.67375026219704        1.94752898051174       -0.84722174555782
C            3.69015342349900        1.40921930376327       -0.59105907441889
C            2.47357903565061        0.78141433474271       -0.26523644656754
C            2.40958067609063       -0.58019254360436       -0.44118460296862
C            1.44757600301366       -1.55151781815757       -0.13734987048873
C            1.77641504995374       -2.91126273118921       -0.19498294536097
N            0.76269567859920       -3.74346074768493        0.08444832384132
C           -0.29918390151945       -2.97240468286895        0.28787318450034
N           -1.51537752136040       -3.42536832838933        0.56737463600612
C            0.02495467291454       -1.54620655860177        0.18816820130414
C           -0.94767127584837       -0.59094733571320        0.21539880361320
N           -2.27605568455564       -0.90876035551175        0.22139012024329
C           -2.93663543415614        0.18093900577828       -0.14516961872346
N           -4.26241988776104        0.20611376442266       -0.30478069766147
C           -2.07274720435471        1.31725468558226       -0.33850853080222
C           -2.51274152106332        2.58743005152285       -0.68944731057220
N           -2.93425249403000        3.61690761313288       -0.98502613493201
C           -0.79190785978672        0.88142558340936       -0.00535398378794
N            0.22080403683623        1.65801857070016        0.25119984533711
C            1.50202461508527        1.64735142154657        0.38995858272111
N            2.02076046658393        2.61981837115237        1.17046364709313
H            3.32721658488150       -1.01299343203831       -0.83106587655547
H            2.74575346667827       -3.31623337740812       -0.42733194767297
H           -2.25066680435062       -2.71917200567795        0.56781312159710
H           -1.68953467167418       -4.41523570098290        0.55163523282399
H           -4.71502953518565        1.05175162638321       -0.60511541813416
H           -4.80809567616636       -0.61441655162304       -0.11036674117553
H            3.01060981253150        2.80036515708754        1.16391754427781
H            1.39868994119572        3.31152108971548        1.55408095462333
