30
 energy: -50.067766674789 gnorm: 0.000521915147 xtb: 6.6.1 (8d0f1dd)
N            4.34632584072107       -1.64701182190524        0.35274737864816
C            3.28022519173153       -1.29856819837621        0.08943261002116
C            1.97999961380874       -0.86858423794221       -0.21202972986350
C            1.27085987084475       -1.72956476330592       -1.14313350674295
N            0.08908094317319       -2.17629224688849       -1.08828234453311
C           -0.92908188960225       -1.94755305934626       -0.22485369112621
C           -1.76419062272398       -2.92868672185575        0.22914090413991
C           -2.89385285821182       -2.31515040632921        0.86060449888943
C           -2.82342919390707       -0.96566953604306        0.71076455211183
C           -1.55555926441706       -0.64748749599557        0.10157022979755
C           -1.02363285034315        0.60489030211644       -0.04280601856433
C           -1.85547736465872        1.82277788284082       -0.17066250574886
N           -3.20882132867838        1.81380061027621       -0.29632599117580
C           -1.03200649648047        2.90404350830058       -0.24792506408856
C            0.31713827213122        2.45283767308551       -0.11330345619228
N            1.37398030145709        3.30493032079987       -0.08695946511763
C            0.34528454644965        1.05463438279219       -0.02792709909439
C            1.55144489271503        0.33319816579719        0.31065592804496
N            2.43856048566302        1.04385898081704        1.09063010843161
H            1.87574464123158       -2.13416708184218       -1.95400069018646
H           -1.59636996804717       -3.98489372761531        0.14527278739872
H           -3.67710704494124       -2.85668219617289        1.36110001867068
H           -3.50049517164053       -0.24929349163819        1.13645405995958
H           -3.63491271012961        2.64446720272838       -0.67374199640704
H           -3.64554107786158        0.93880163398139       -0.53484970949029
H           -1.32217475357302        3.92686956059159       -0.40024072552633
H            2.29517124343963        2.92148042580758       -0.22547182758044
H            1.21728945920221        4.24692482935657       -0.40294026430745
H            2.04879285952390        1.72382443947091        1.72191336285078
H            3.24217879042491        0.53663037969322        1.43018068398091
