24
 energy: -44.549057826159 gnorm: 0.000758801799 xtb: 6.6.1 (8d0f1dd)
N            3.29104899505981       -3.58259663405028       -0.31511405715066
C            2.58065444569025       -2.69650385223436       -0.15672552679203
C            1.70576210257241       -1.60086254390242        0.04397115313946
C            0.45916919107832       -1.94715737036293        0.64807075977413
N           -0.67944683270018       -1.39724677058828        0.48525096500397
C           -1.26281973291553       -0.29286691960028        0.16291003091036
C           -2.60886682858578       -0.14354064924020       -0.21890214099511
C           -3.50163843758402       -1.15263247888211       -0.58334757556772
N           -4.24146203752118       -1.97391647165759       -0.89508201969596
C           -2.89907318506672        1.23171863056276       -0.05709114457677
N           -1.85725734113633        1.94935134291752        0.31033259991992
C           -0.78804037929387        1.12727810968460        0.34451919632977
C            0.49307839364884        1.60819785317642        0.25805266889111
C            0.73717636959389        3.01590950632091        0.26325377397468
C            2.05998275588293        3.24527968919099       -0.00533716520781
C            2.69275630279254        2.00587981615153       -0.23685948151559
C            1.78742753835743        0.96243835424450       -0.06662762032455
C            2.21488349639228       -0.35726229638271       -0.27236874035885
H            0.43971545403263       -2.86907624894363        1.22505950748513
H           -3.86307772501005        1.69068951683935       -0.18940016398359
H           -0.03247745111912        3.73709646978466        0.45743941060634
H            2.54634542171418        4.20246629637812       -0.04226368042635
H            3.72805322016858        1.88214006041285       -0.49883859932622
H            3.22906775554864       -0.40085325701970       -0.66212826731270
