33
 energy: -58.051422872283 gnorm: 0.000581985646 xtb: 6.6.1 (8d0f1dd)
N           -5.28340305941123        0.27545897302441        0.01839036410963
C           -4.13589103185933        0.34604613556301        0.09187940656597
C           -2.72875522173936        0.40740660692046        0.16054690827561
C           -2.14646836341020       -0.82056656762631       -0.23068212905494
C           -0.92496713394190       -1.41447889086351       -0.13902515562030
C           -0.80548211141790       -2.83599905514770       -0.34543264649930
N           -1.73553509912618       -3.65963301759781       -0.89726994762889
C            0.42834459191925       -3.25575698890512        0.12287341770908
C            1.17559976200173       -2.14013301862057        0.52614850613846
N            2.34225913708326       -2.24469879235295        1.20923335906416
C            0.42357185605137       -0.95539713318456        0.28374301268992
C            0.98335914632722        0.30783203468631        0.16032836425759
C            2.35407784226640        0.59110774718904       -0.03339270078185
C            3.42984385032133       -0.21496328078799       -0.36324325636174
N            4.38407960763103       -0.80162753079892       -0.64721035772782
C            2.47455212889936        2.01684514806679       -0.06398463632258
N            3.61947323011950        2.69191646490535       -0.24842513346531
N            1.31444510165306        2.62151842797892        0.14396004677585
C            0.36187156230466        1.66217371012877        0.25745200636277
C           -0.88918368913003        2.13520147560247        0.55983643118535
C           -2.20642138501137        1.63404095471692        0.60865297663582
N           -3.11490661519526        2.52683185298817        1.08453097114885
H           -2.92259558532574       -1.49219402503479       -0.59289610882912
H           -1.62127485051013       -4.64727050311127       -0.74582190624491
H           -2.68126544837207       -3.33680658629054       -1.00957304924023
H            0.76708802654637       -4.27444142991414        0.17220524456280
H            2.89565726257261       -1.41832003088983        1.35791296206261
H            2.86418919016479       -3.09838310345990        1.10253308318467
H            3.57232071146712        3.68794819960063       -0.37079659448090
H            4.44759545270322        2.19591376556940       -0.52973119203979
H           -0.84370084507270        3.20305182541502        0.75454355670478
H           -2.83081302737147        3.46674354488099        1.29569681678576
H           -4.09796584503811        2.31349836355016        1.05473344047909
