32
 energy: -59.131069609479 gnorm: 0.000918102784 xtb: 6.6.1 (8d0f1dd)
N           -4.11961034564219        1.84175793763291       -1.89366802111081
C           -3.20683830501431        1.47328279271111       -1.30080518014072
C           -2.09954012278943        1.02198380585012       -0.55229247555796
C           -0.99102653741037        1.79961111938410       -0.56123287762004
C            0.26105552000703        1.61865980789476        0.09421766405386
C            1.08774537064699        2.71076280267324        0.46425320320241
N            0.78073012936578        4.00891890070677        0.43334006695999
N            2.30455345312603        2.32037985549361        0.93650128021384
C            2.35099841484249        1.01611300356654        0.79548530067404
N            3.33048894948506        0.28524565288824        1.30894571718580
C            1.08485388544661        0.47095836691757        0.21601498466135
C            0.88953585277002       -0.83277679720812       -0.18086397969256
C            1.92490270586179       -1.73584978742223       -0.67181882075945
C            3.23728761905107       -1.40146740650725       -1.00074062367160
N            4.33027494301677       -1.15166736200629       -1.26673759659538
C            1.33237473792808       -2.93966529298616       -0.98124844603815
C           -0.03898422358137       -2.87050594557908       -0.63429853859433
C           -0.34103651644907       -1.59994216723470       -0.20302821007018
C           -1.62119190929241       -1.27743361607649        0.40604567612267
C           -2.15209930029223       -2.33669355086009        1.17019666027032
N           -2.59705263737519       -3.19275219322324        1.79673103439314
C           -2.39367869960353       -0.15692605633383        0.28215484333597
N           -3.57767328523582       -0.05754310076926        0.95106421898408
H           -1.07263938681542        2.72051460195043       -1.13464537782629
H            1.49776445771009        4.67234479353080        0.67086101509253
H           -0.09674343267085        4.32796164970468        0.06384361710069
H            3.42540488415021       -0.68972608287144        1.07470604645813
H            4.12888997569949        0.77387651930599        1.68103976605646
H            1.82587018029334       -3.78559543499241       -1.42332358119697
H           -0.73387814355839       -3.68659765512342       -0.70893610596339
H           -3.92876218219931       -0.87382736962220        1.42660064057849
H           -4.24590533866912        0.63858596920630        0.66543387379775
