24
 energy: -43.772425768551 gnorm: 0.000354563569 xtb: 6.6.1 (8d0f1dd)
N            4.98237594727521       -1.66937712741398       -0.09489356699952
C            3.95496757262548       -1.15782956847864       -0.05362983433886
C            2.70747452586890       -0.52286333473953       -0.00124198651102
C            2.49065536683947        0.81909379830639        0.40544988614136
C            1.14604261978414        1.11876314014594        0.27236210360536
C            0.59842251277053        2.36086257552946        0.68881701670104
N           -0.40158984637308        3.00396399798993        0.21127884037286
C           -1.36893772087805        2.67768244275362       -0.62645071316155
N           -2.20322561637826        1.70014307960781       -0.55135181585055
C           -2.09814920503807        0.45975780476182       -0.12876158449987
C           -3.13695555600109       -0.39679947921721        0.16268851538354
C           -2.59217402590847       -1.70343485789051        0.10272893646825
N           -3.24958010235746       -2.85213904791634        0.26661030343819
N           -1.26716943621448       -1.71021806853912       -0.15318596873540
C           -0.87405445290056       -0.44002379476277       -0.21031906781107
C            0.47340602596648       -0.10289243792415       -0.18164873409189
C            1.48071979368194       -1.08951221842242       -0.30866715416440
H            3.25666366485852        1.49651411172013        0.73622913671820
H            1.16633969615094        2.90485154039552        1.44066241321595
H           -1.62387760548031        3.45745478656837       -1.34170190788538
H           -4.16623127809841       -0.14315215698833        0.31267227560942
H           -2.74521617492465       -3.71561544472462        0.16167823749007
H           -4.22199285241099       -2.86273805847433        0.51643074893510
H            1.29251598904216       -2.10269055188668       -0.60534960562976
