29
 energy: -49.582397700805 gnorm: 0.000634065580 xtb: 6.6.1 (8d0f1dd)
N           -1.64031851954106        3.35337879522234       -1.02786028129661
C           -1.21756602776809        2.25305659922692       -0.33749317248067
C           -2.20906740158252        1.51861288563954        0.34578078763420
C           -2.30203914216546        0.17033525176832        0.64466342307662
N           -3.45070804064206       -0.18969569175847        1.31248359113034
C           -1.51352311473356       -0.92950455130084        0.19087566914814
C           -2.04461680736009       -2.21373206174766        0.11646249950650
C           -1.07076703335840       -3.14116683400044       -0.27937822682314
C            0.12884850989308       -2.47461368939285       -0.41416399078085
N            1.32692688861767       -2.97284006755967       -0.81304698595567
C           -0.09390252515265       -1.06432735756169       -0.15774761836220
C            0.95989155730017       -0.19029531626595       -0.10140742195815
N            2.25776668674107       -0.58306511463767       -0.06755473430471
C            2.93905467821470        0.52226180464359        0.25303327249163
N            4.26661822677249        0.51281552662817        0.43116708655282
N            2.23237240108944        1.66490541900516        0.36307224431952
C            0.98139994928465        1.30777462251142        0.07680007262266
N            0.08154624541849        2.18784845804596       -0.22178569071281
H           -2.59665030877104        3.42235349029541       -1.32493296835404
H           -0.94056921136536        3.87388321061494       -1.52810558611797
H           -3.09411954398368        2.09865482699408        0.58597662847547
H           -3.97475619845916        0.54229153166230        1.76094288554058
H           -3.46957556874221       -1.08748531270212        1.76198819253577
H           -3.07563179541171       -2.47608417251790        0.27796791191432
H           -1.23619252267532       -4.18987629150950       -0.44591578001512
H            2.10508444036225       -2.34519068453667       -0.62704215747539
H            1.47207996945448       -3.96475435643183       -0.72855496106302
H            4.76552970231246       -0.35687832744145        0.39955344586676
H            4.70993433945309        1.35012328570616        0.76045667368498
