28
 energy: -50.663846145293 gnorm: 0.000970439260 xtb: 6.6.1 (8d0f1dd)
N           -4.98620218948631        0.14605641630510        0.64784000450824
C           -3.90011064644391        0.47301958442364        0.44543712200944
C           -2.58280658547874        0.83305652409394        0.19190037617699
C           -2.08579054002335        2.09949558539182       -0.09931352280169
N           -0.77918018357314        2.10463937961736       -0.34911175752232
C           -0.31833261624242        0.83034339948986       -0.19948263831168
C            1.03459872756155        0.59188735689396       -0.23278671970944
C            1.98642886898024        1.67973955331653       -0.32858148426216
N            1.65168975991414        2.92187226877820       -0.65208296024180
N            3.23835447870425        1.29761762219815       -0.04509973501948
C            3.18571569869178       -0.00447247093325        0.25719021408887
N            4.31988270263279       -0.67597269523381        0.53858526548071
C            1.86992072631392       -0.55519994214970        0.14170763649009
C            1.55593582523198       -1.86511128879635        0.40492878760896
N            0.54907904142002       -2.59360970963232       -0.01253966482755
C           -0.69185729540919       -2.43216561577606       -0.33785239111469
N           -1.23301366476253       -3.41653275226306       -1.09092197852676
C           -1.63128703012445       -1.42240847946377        0.08820858129747
C           -1.47378431589154       -0.07005259503043        0.08747668912090
H           -2.64718485229967        3.01765049003588       -0.13401907950296
H            0.63278872404528        3.07591635896212       -0.65742955981241
H            2.33839986941271        3.65184918081031       -0.57217661837083
H            4.27565370393815       -1.57910606313810        0.97559857170176
H            5.14930502964286       -0.12267192754316        0.66888853815745
H            2.30847408030985       -2.46573206992252        0.91407678670830
H           -2.19977176158221       -3.38455719100326       -1.35970381685790
H           -0.63800017449532       -4.13716053912884       -1.46130641418163
H           -2.65036360368398       -1.77615992529924        0.20585072451184
