33
 energy: -58.054942061733 gnorm: 0.000822062282 xtb: 6.6.1 (8d0f1dd)
N           -4.93012670584105        1.55807308553456       -0.44845145475825
C           -3.88195713227191        1.10924107277266       -0.28276964764214
C           -2.63308872311407        0.53491592388057       -0.07677863117097
C           -2.41038338055324       -0.73479665266170        0.56102926802044
N           -3.41386263719588       -1.44398119083138        1.13649086188659
C           -1.05728356580752       -1.06212462432633        0.49456799805010
C           -0.57083739672786       -2.23386766785617        1.16804736274000
C            0.44021140213557       -3.06679144675050        0.87192578286120
C            1.28618154483470       -2.95035819153547       -0.31256576556946
N            1.42510459714503       -4.08663749588278       -1.04474440952870
N            1.96351962122472       -1.93122547373232       -0.67618855787420
C            2.07136562601715       -0.68281970347537       -0.20978492864766
C            3.27422779072607       -0.04062157638882       -0.03980600072438
C            3.03200736024355        1.34684410311109        0.11251819248117
N            3.97094266857026        2.29003533407472        0.31973676102442
C            1.65139106682687        1.59131502622041       -0.02246398370889
C            1.13081468516225        2.85956801330524        0.18000492089127
N            0.78513455948761        3.95057769176305        0.34226965348537
C            0.98633889483813        0.32749407701309       -0.15137098348284
C           -0.36778913727319        0.07023825176295       -0.09836228229537
C           -1.40148087726262        1.03963339372304       -0.46249091954976
N           -1.22483802777145        2.11643088751649       -1.25618808958205
H           -4.35783092193513       -1.12923371593018        0.99238033288008
H           -3.27370601959715       -2.40814583525647        1.37758442282528
H           -1.19072457253415       -2.52722139675861        2.01174565792923
H            0.58489585130695       -3.96076329614129        1.46256995243464
H            1.89933939951099       -4.01968361530411       -1.92912057696789
H            0.79404244592588       -4.85356351633808       -0.89779159699469
H            4.24154012268370       -0.50485349703075       -0.03832431418260
H            4.90800714460938        2.01814720859372        0.55774625606077
H            3.68439588417535        3.23839041834168        0.49534515099714
H           -0.31043196368270        2.52929808087739       -1.33589978759104
H           -2.00767796545690        2.74188218470950       -1.36182199169666
