30
 energy: -54.906881387802 gnorm: 0.000767159859 xtb: 6.6.1 (8d0f1dd)
N           -5.44672877720130        0.16112197705768        0.10397186180424
C           -4.30955007216682       -0.02049372112021        0.08465144542496
C           -2.95121859496859       -0.30650350903594        0.06579383645536
C           -1.86955480342552        0.56805765113891       -0.05333282681754
C           -2.06461071952969        1.90920607269865       -0.41405308796733
C           -1.14803777513835        2.91812512540474       -0.60520553272156
N            0.02041307495349        3.11840654099117       -0.05096837651556
C            1.03936157839121        2.46082569740361        0.36750558574382
C            1.47297898835397        1.15659899898722        0.07691848671288
C            2.82182373977359        0.78187866833273        0.16061773860473
N            3.88668001818486        1.58721086480247        0.34870125851260
C            2.93067006311785       -0.63186630232424       -0.00672736119055
C            4.12244920651110       -1.35034120976804       -0.00696110143412
N            5.11523375915031       -1.93368123300402       -0.00920862137253
C            1.64372571133646       -1.15901871791449       -0.12142722986866
N            1.31504758915922       -2.44025014827914       -0.28124564473621
C            0.67884777880176       -0.06436296438948       -0.08936862537030
C           -0.67129716142274       -0.31405700982821       -0.01909528599300
N           -1.09118061677475       -1.62509383707503        0.08048772004921
C           -2.40465169346085       -1.63483336211089        0.15822052147539
N           -3.13182200040163       -2.75283903370168        0.29072800155006
H           -3.08753408818377        2.14436873528134       -0.68512900289423
H           -1.48136535163846        3.77530167311041       -1.18617554794078
H            1.71849259273230        3.06512167574504        0.97027408511320
H            4.81188081772668        1.20011677745849        0.29012771345892
H            3.77926829433502        2.58428273478113        0.37304018950456
H            0.31017948459551       -2.62251762848135       -0.20217811322889
H            2.02340049196764       -3.15251801431498       -0.22736739421249
H           -4.12960072573649       -2.68976181681220        0.38852070785446
H           -2.67459593444140       -3.63967137583550        0.40356943740054
