29
 energy: -50.364548822462 gnorm: 0.000907388175 xtb: 6.6.1 (8d0f1dd)
N           -4.25571146013094        2.75649894099451        0.28387562539907
C           -3.30355564079004        2.11764679009579        0.18950782451280
C           -2.19181636634727        1.28138871642103        0.08096560172623
C           -0.86030340448246        1.62179880830996        0.13077139923995
C           -0.08129210529451        0.43354958058924        0.08920688820573
C            1.29586124962124        0.52759047892010        0.13035671085546
N            1.91241253762406        1.69845156907093       -0.09458857138597
C            3.21825689738393        1.42768398267084       -0.22738705392445
N            4.09198576567501        2.40003630279299       -0.51976916876532
C            3.52268546003616        0.05651274540351       -0.02475867627449
C            2.32852998995262       -0.55566409466269        0.29345512370807
N            2.21877412604133       -1.74829878616213        0.83681670731523
C            1.33865985782909       -2.68364677511315        0.88881106786271
C            0.19677618215074       -2.92588348125213        0.10513217671349
C           -0.76007808392890       -2.07060705369904       -0.40508337002279
N           -1.75086377014806       -2.66383069043564       -1.14779016598522
C           -1.00419327155655       -0.68758302348973       -0.08873885106622
C           -2.28719856620108       -0.14525591197450       -0.08462223460728
N           -3.50472486441571       -0.77987273163018       -0.22367531761732
H           -0.44145302517130        2.60132974076007        0.24702455474156
H            3.76028515816641        3.34610077406442       -0.57843112223551
H            5.06663912203123        2.19728037478631       -0.64335579899096
H            4.49756216242022       -0.38789886969738       -0.04428397490071
H            1.62925237748703       -3.49826921030176        1.55251120529299
H           -0.00793147483768       -3.97943796921615       -0.05933407505407
H           -1.57312211476456       -3.58676593485970       -1.50742613937901
H           -2.34327163909654       -2.06970573830100       -1.70245113146519
H           -3.54253273958957       -1.73548570362083        0.09938269783474
H           -4.29210814926521       -0.21846064426454        0.06961364216585
