22
 energy: -40.300110165962 gnorm: 0.000481875348 xtb: 6.6.1 (8d0f1dd)
N            4.69109164406299       -0.67259854340455       -0.00120245316685
C            3.54753113576621       -0.59736063351105       -0.00071902320262
C            2.12644394248879       -0.49895800862789       -0.00044465127080
C            1.50511896353004       -1.75024585163213       -0.00005002020316
C            0.19715432400718       -2.20641925706641        0.00033311731328
C           -1.05177014537349       -1.60593463536597        0.00045679603675
N           -2.12971974755012       -2.40135458434582        0.00070915022183
C           -3.17892454995914       -1.57827114800347        0.00077315046696
N           -2.90953112280975       -0.27858072464699        0.00064268992549
C           -1.56954164375304       -0.19374135994644        0.00041863027017
C           -0.94917303278312        1.03809329163547        0.00022317017181
C           -1.67007032499987        2.24729161873544        0.00031685044313
N           -0.87544484143642        3.31545612681409        0.00005991705014
C            0.37946973359371        2.88017519453997       -0.00024423006921
C            0.47364493566309        1.46994042276202       -0.00017413788003
C            1.69316434588722        0.83887002803696       -0.00048061644840
H            2.23040190667147       -2.55999117185409       -0.00005784367870
H            0.10120272102924       -3.28709441202202        0.00053740084121
H           -4.18852019571072       -1.94761728908675        0.00095246470230
H           -2.73907512338987        2.33776613039362        0.00058817945288
H            1.20088691825449        3.57346536380817       -0.00048809777178
H            2.52480329181111        1.54119073258783       -0.00076964600438
