30
 energy: -54.108249657025 gnorm: 0.000717317681 xtb: 6.6.1 (8d0f1dd)
N            4.65084528372432        1.00682791449987        0.74049712414144
C            3.57145278620242        0.71432122083386        0.45809844945229
C            2.25947646308036        0.37791924333370        0.10473785923772
C            1.61363371237992        1.35733288701358       -0.76051366246122
N            2.40878270521642        1.88371003804885       -1.72870551084883
N            0.44240523819525        1.87440139704566       -0.65030964607836
C           -0.72541762551261        1.56817729548437       -0.11958553041569
C           -1.71477604938550        2.46357094093840        0.21544429425237
C           -2.90466656575044        1.69975599993357        0.35771312150770
N           -4.12636537081526        2.19557386432515        0.62338721143063
N           -2.71836886190063        0.39385915197441        0.15220379570667
C           -1.38243836011009        0.22669102793076       -0.04754790408428
C           -0.79807003789090       -1.00815414074349       -0.06152768180286
C           -1.59390086175063       -2.23386034177024       -0.19602711556811
N           -2.91876972372648       -2.21874582627983       -0.32451757631734
N           -0.83492458027084       -3.31468879743134       -0.23136852927810
C            0.42957363157693       -2.88295763075982       -0.02196725615240
C            0.55467010799620       -1.50245266828591        0.08108828686656
C            1.77974119592818       -0.86932696895767        0.48338850103412
N            2.58830557958656       -1.63712082151349        1.25600825661005
H            2.07020492281718        2.69061900230748       -2.22524359366215
H            3.40116318994170        1.72266218632873       -1.69665766874622
H           -1.63595736307879        3.52893791532978        0.29249114491538
H           -4.22270029267684        3.14524335114586        0.93354874221768
H           -4.88664235711462        1.55508366814234        0.76826038428172
H           -3.42000697221846       -3.07522996041778       -0.47511845023103
H           -3.35301494752801       -1.30426876161000       -0.21229738891883
H            1.22018848019945       -3.61404203026772       -0.00217316318641
H            2.30874753126771       -2.56776299314912        1.50422511448753
H            3.51387827391622       -1.31883863293024        1.48861978210841
