32
 energy: -58.340935792367 gnorm: 0.000664329693 xtb: 6.6.1 (8d0f1dd)
N           -2.78526758529877        4.21979240380145        0.67423256790009
C           -2.24631165376840        3.22790617465737        0.44428068870156
C           -1.60714816634396        2.01723889230999        0.14551491973496
C           -0.28540061208895        1.88185383710850        0.52789075274551
C            0.71196061953013        0.94885341574081        0.24563116001612
C            2.07322475296384        1.31910586913449        0.37715104115017
N            2.58118280799861        2.51122714037072        0.77123860906229
C            2.89415831896819        0.22667114523496       -0.00212742584306
C            4.28144511229760        0.25177234514577       -0.10232699728650
N            5.42863932342433        0.27732046337211       -0.20251740787593
C            2.06464332106356       -0.86498177129529       -0.29693471561640
N            2.51258509346678       -2.09003116987839       -0.68406530862822
C            0.70132851595422       -0.47512847411102       -0.13072101932095
C           -0.32337631999247       -1.40738302096141       -0.04489121269599
C           -0.23936180479291       -2.76909396887277        0.24400583481272
C           -1.54770353693783       -3.19598539627865        0.51733931774366
N           -1.93387467940958       -4.40849810455640        0.93462092268570
N           -2.48146505464222       -2.22825079356652        0.30962777345216
C           -1.81442014792277       -1.15445141532375       -0.07121876463733
N           -2.42653178098374       -0.15095728467866       -0.62871134346756
C           -2.33664772829212        1.12733645481954       -0.73964015573234
N           -3.04217114496257        1.71242883722887       -1.73297644258895
H            0.07878939011398        2.75725511646898        1.06028723443679
H            1.99265609639946        3.31976184885966        0.85856540457861
H            3.57059244145218        2.66043225405441        0.67427840010579
H            3.48177819117611       -2.14598493141168       -0.95572428462227
H            1.87058204769975       -2.67646233940275       -1.19171704580299
H            0.64040985622671       -3.35264519799976        0.42553133565525
H           -2.89877331282084       -4.54017667918498        1.18230860666073
H           -1.25927216516222       -5.12362973663595        1.13719518046105
H           -3.66161282794223        1.13814658037517       -2.27935575469837
H           -3.18592777317299        2.70811110687676       -1.71996643198514
