28
 energy: -51.443695033097 gnorm: 0.000628127988 xtb: 6.6.1 (8d0f1dd)
N           -1.33866153197661        4.59887126239083       -0.13837244834152
C           -1.12460126257426        3.47138726931595       -0.10146760476150
C           -0.81723650101507        2.08782371311506       -0.05273710731013
C           -1.93604225679535        1.27831092246691       -0.02765969157736
C           -2.16446198420771       -0.10283975222332        0.02249370124925
C           -3.54554806577398       -0.43333831974486        0.06890216685722
N           -4.67341551592606       -0.63690527370290        0.11036369780830
C           -1.33745582604649       -1.22899480189488        0.01914130002749
N           -1.92716804648431       -2.42636619878277        0.04003660944639
C           -0.93436543851322       -3.32025159826508        0.00986386613370
N            0.28637269436751       -2.83487318391189       -0.02630250434032
C            0.14261111860476       -1.46572341347907       -0.01728822887351
C            1.25075068538365       -0.66944460802068       -0.01864375424561
C            2.57651990505658       -1.23826326613400       -0.02784803596764
N            2.82410116881362       -2.54455135034480       -0.05793706723361
C            3.51715997840097       -0.20583680037556        0.00592091865824
C            2.86393842047606        1.02242456602699        0.03009775851279
N            3.50100509272999        2.21177288840074        0.03615878514827
C            1.44046097035585        0.81595743834956        0.00225662638709
C            0.59226120470071        1.87561573150391       -0.02245023165697
H           -2.86512255254972        1.84491965420342       -0.04469127859700
H           -1.12812687217282       -4.37795817677570        0.01342969167978
H            3.76643489582910       -2.89158735179224       -0.05206507761804
H            1.98706897726027       -3.13938742189977       -0.06115958246642
H            4.58341743448494       -0.34117481442927        0.01333442350181
H            3.00326860345226        3.07023803035379        0.19121912940919
H            4.49715807027241        2.22451404729825        0.16018545090862
H            1.10382542404671        2.83574086725081       -0.02665258163890
