23
 energy: -39.237991774968 gnorm: 0.000661178311 xtb: 6.6.1 (8d0f1dd)
N           -0.47863279499808        3.06735375242199       -1.24828881689262
C           -0.32674541094734        2.13174568952839       -0.28976208618055
N            0.76056572421818        2.21267933089770        0.45511006975329
C            1.56421251396855        1.28098474246965        0.87222103191134
C            1.70118964601073       -0.03602165272190        0.43176616685416
C            2.92113075675612       -0.73079905224132        0.49334107894388
N            2.84367028363136       -1.94820341041508       -0.04754347337412
C            1.57540412870819       -2.13347036787319       -0.39914196763647
C            0.76635698142652       -0.99955394434812       -0.16046957467709
C           -0.63157316587131       -1.01756858088088       -0.19440617268223
C           -1.44036816450916       -2.12837627528996       -0.30453857847558
C           -2.76371825496901       -1.78074572943054        0.05653706910356
C           -2.84670770813897       -0.44677445825010        0.38021915325117
C           -1.58039580127262        0.13192067502900        0.13468142217975
N           -1.39744880388762        1.39498957238751       -0.02008173931475
H           -1.37433004396125        3.18258233955979       -1.68858033308181
H            0.22654789547241        3.77476044976674       -1.35635918842480
H            2.32654015946048        1.64264870326109        1.55811158443177
H            3.85652936148235       -0.35003080776623        0.86167324144498
H            1.26194224101987       -3.06607391053034       -0.82925057337038
H           -1.11748539631740       -3.12203798055172       -0.54800535814691
H           -3.58281035346290       -2.47865656906247        0.08579600923926
H           -3.72355527351903        0.10394155144005        0.65702821914419
