30
 energy: -50.874003641700 gnorm: 0.000454296615 xtb: 6.6.1 (8d0f1dd)
N            0.45746670958670        4.10421089464712        1.54669317538496
C            0.33484379957668        3.07213786001910        1.05466093997937
C            0.16575367358802        1.80215170813101        0.45780936151269
C           -1.12609776704661        1.35617680385729        0.46467848131325
C           -1.77652422592171        0.20919607186873       -0.03316735251214
C           -3.15529676774305        0.21004060069357       -0.26780330258949
N           -3.99183079881184        1.27434202517750       -0.28864968550868
C           -3.57863054132897       -1.12368263795437       -0.59867766226286
C           -2.51456341195637       -1.94875598466137       -0.49369859711902
C           -1.33177189032640       -1.17668314708891       -0.15164061919832
C           -0.13985674479222       -1.78092547303757        0.12815704129756
C           -0.03744792091055       -3.19381916803149        0.41635048445765
C            1.25302703280053       -3.49308527126517        0.69731766780847
C            2.05159806323564       -2.31757688432857        0.50876270732681
C            1.24566329136043       -1.26115530384779        0.18946418634649
C            1.79873405965824       -0.01295837606932       -0.27211226318277
C            3.07839313634275       -0.18276062711085       -0.84683883602093
N            4.11645610862783       -0.29982028642865       -1.32906789645487
C            1.36887032473094        1.29530794460427       -0.18270111842478
N            2.15485141421174        2.27760981053965       -0.71390133480242
H           -1.81378467121972        2.07464326326240        0.90964532463466
H           -4.98233885947162        1.10397587566672       -0.30577437465687
H           -3.68432114305128        2.15606002951366        0.08564049387455
H           -4.58390732313800       -1.38804759471701       -0.87237467418321
H           -2.50834112648479       -3.00249123168081       -0.69130915403999
H           -0.87528661011330       -3.85754218976834        0.50355771077418
H            1.63866347320190       -4.44682252916508        1.00896264400732
H            3.12136930121934       -2.28663278738383        0.60446318052180
H            3.08270331855791        2.04227021997512       -1.02690026297173
H            1.96579371461890        3.23879270438063       -0.48457047600806
