28
 energy: -50.683749662928 gnorm: 0.000733410431 xtb: 6.6.1 (8d0f1dd)
N           -3.82902210852413        1.84594688843582       -0.64403792471750
C           -3.00885606484470        1.05981151627313       -0.44940724060599
C           -2.11514249623084        0.02800739720429       -0.19613816722992
C           -2.55063659887636       -1.25780180114706        0.26992305800587
N           -3.81993490489508       -1.59899891412791        0.49827709107836
N           -1.54238616340550       -2.10845697093722        0.47169605970020
C           -0.42146884499742       -1.45922620939254        0.13441487988353
N            0.66754392009628       -2.11612472939925       -0.09152101109121
C            1.92013842540739       -1.76030058026633       -0.29366098350087
N            2.60618043994753       -2.49673186258776       -1.19566187602546
N            2.61981462219060       -0.93081241186614        0.45853298761487
C            2.37448308941755        0.29874814785630        0.81825656012480
N            3.11981155880591        0.78376404197659        1.82951369865498
C            1.52079210576401        1.22760608104907        0.13112863998578
C            1.85269884841167        2.55846302343702       -0.06267559313676
C            0.78609916973596        3.21285355293813       -0.71362892301916
C           -0.24368099124834        2.32170531698573       -0.86287186139978
C            0.16287335990143        1.04927904339609       -0.36930741174668
C           -0.71564605192814       -0.01340437060232       -0.19782359589794
H           -4.56186398633946       -0.94911995442755        0.30380816768235
H           -4.02132899047661       -2.51714288034450        0.85269774966199
H            2.15980091429790       -3.31064403525743       -1.58081620518749
H            3.60841121017870       -2.43062216464992       -1.21074532242499
H            3.81190928425701        0.19441586177715        2.25823138543286
H            3.06286482847628        1.75587019434860        2.07355131307549
H            2.79590710532786        3.01419011972773        0.18497196041796
H            0.78917657607846        4.24136460825902       -1.02509764951510
H           -1.20176754071405        2.52048294054668       -1.30351366532567
