32
 energy: -59.135139313666 gnorm: 0.000816009913 xtb: 6.6.1 (8d0f1dd)
N            5.70888020923985        0.06513455173713       -0.46567699672820
C            4.57252032735025       -0.06725621510955       -0.35166721016478
C            3.20373638299761       -0.29778724714874       -0.19745335087984
C            2.17512900822246        0.64655463474822       -0.22006374949072
C            0.94106300141181        0.01172792082104       -0.03888058389774
C           -0.24112862733366        0.75010917197599        0.04834199180471
C           -0.28765994417890        2.15145239719860        0.12293159622615
C            0.69216466306843        3.12438390584616        0.28149565904554
N            1.39913048442324        4.02343527890236        0.42361784354452
C           -1.67063131334985        2.52329863729208        0.07367211204482
N           -2.15108951813846        3.76399533897193        0.13336803292064
N           -2.45827947007468        1.45675933978197       -0.03695898199070
C           -1.67804883645558        0.35889801972825       -0.03067427988473
C           -2.39447321626012       -0.82764119930026       -0.14869482934876
C           -3.76677040102232       -0.54127301906362       -0.38999652964962
N           -4.88573587195601       -0.39283995122355       -0.60719823826089
C           -2.10557010383916       -2.21763290135789        0.00489973857912
N           -3.18859945340658       -3.02976695048412       -0.08554777280898
C           -0.90679790511179       -2.88220558262033        0.27447856977436
C            0.43651749476856       -2.55281564867645        0.30029141679955
C            1.22089623549087       -1.43248247000181        0.10300875822847
C            2.63616990340555       -1.57208755900425        0.03064164111861
N            3.37277942814678       -2.71339588389960        0.06297251993832
H            2.32790652829112        1.69709077359195       -0.37195865397062
H           -3.14585803600801        3.90227636636771        0.09192658899110
H           -1.52739809496829        4.54701351602457        0.23001412006628
H           -4.10349269907339       -2.64857886723001       -0.25912231562342
H           -3.08818452143539       -4.02302217810283        0.02472301051323
H           -1.07462371479011       -3.94208141998272        0.44392406621847
H            1.03998992353688       -3.43876305972191        0.47965804422778
H            2.98667613763027       -3.55121342838959        0.46288296006343
H            4.37227212541950       -2.60591777287233        0.12295605039356
