27
 energy: -47.704777009096 gnorm: 0.000433623806 xtb: 6.6.1 (8d0f1dd)
N           -3.36475718766430        1.85467580746048        1.43294220547943
C           -2.45334463749273        1.54765649804228        0.80779927487428
C           -1.27007750650873        1.20391262831124        0.10189598750051
C           -0.50570965025322        2.26080654142392       -0.27390140101408
C            0.73804969263978        2.36032891668207       -0.97382550721588
C            1.84640572060693        1.59557027104710       -0.93516672784850
C            2.16286076661830        0.39187242381963       -0.22086074625068
C            3.47632422756467        0.02462396895182        0.06127556924350
N            4.61805881229937        0.71196722492236       -0.10683344286305
N            3.56409491687183       -1.25866255012187        0.60555940442803
C            2.37397757154924       -1.73712060910137        0.59624704863492
C            1.37716977232797       -0.76188377721558        0.11345566703936
C            0.04870028716847       -1.07762834701264        0.02135688272954
C           -0.43293774340123       -2.44786264817345       -0.00839524935463
C           -1.76130055070668       -2.44270981257465       -0.23255586821860
C           -2.21233805923220       -1.05991194820051       -0.26012376202249
C           -3.54794230869500       -0.70224465060645       -0.47627925526183
N           -4.64699672136631       -0.46605286407726       -0.71240100253306
C           -1.12689524276416       -0.22362662298746       -0.11223493931265
H           -0.94168890676642        3.23133177970697       -0.05264010034564
H            0.81907465703716        3.27746458770506       -1.54702532329094
H            2.69068534953822        1.97341645328558       -1.50481653670899
H            5.47305543173623        0.28805025574342        0.20660354292703
H            4.60922067670471        1.67645206012887       -0.38367187495757
H            2.15978079244282       -2.70949444391595        0.99754404772575
H            0.19853850107163       -3.31296339234185        0.04913348121647
H           -2.41355239552636       -3.28583091700169       -0.36315676830016
