30
 energy: -50.078347096312 gnorm: 0.000864778141 xtb: 6.6.1 (8d0f1dd)
N            5.17299942036855        0.67034770411064        0.21152265197935
C            4.11993955774557        0.23289732357210        0.05930287746895
C            2.85058052091681       -0.31186130170094       -0.12330503088897
C            2.56635164058667       -1.62706045556295       -0.59615441015346
N            1.28236490240435       -1.86627706640911       -0.60466234698504
C            0.64053068041211       -0.70843426996722       -0.20121123517895
C           -0.73857027914704       -0.70793267893957       -0.03151920575748
C           -1.48489444265411       -1.99662756541942        0.17204511390585
N           -0.85146954643149       -3.16546405050230        0.12484147776313
C           -2.78678892073871       -1.69318462300678        0.45590855620303
C           -2.92746153700986       -0.28004790468548        0.37116572849411
N           -4.06893183580224        0.39140081776863        0.57986565402974
C           -1.67576368461224        0.31890507097804        0.06706155391606
C           -1.56888147156451        1.71824777886085       -0.36380974176268
N           -2.68818359875571        2.12512652697611       -1.11552101674322
C           -0.63087270510374        2.62649349513530       -0.05547144082157
C            0.56687757809272        2.52015590096005        0.74367850922492
C            1.51359894449495        1.57095283554635        0.78585145421914
C            1.61735766864701        0.29974501069005        0.11774705539031
H            3.28229265670117       -2.36717102155387       -0.90672357660326
H           -1.34572971575463       -4.02983128942481        0.25897954496819
H            0.11829786058146       -3.10807116753747       -0.21591750815248
H           -3.57799964952848       -2.38073596814875        0.68528018269996
H           -4.08335442756969        1.38305775933581        0.40013785075868
H           -4.92930811137990       -0.10435956605024        0.73149645281776
H           -2.55081827860514        3.00871585513259       -1.58777695866262
H           -3.03128367497393        1.41292412065941       -1.74587749467292
H           -0.79555742074506        3.63257718351788       -0.43202301183185
H            0.78214387186386        3.42747630941736        1.29968340924177
H            2.39572750026131        1.79540392524749        1.37734259523323
