33
 energy: -58.847855083455 gnorm: 0.000728330853 xtb: 6.6.1 (8d0f1dd)
N           -0.78447209121730       -4.28381912610017        1.46954400633148
C           -0.43785207017332       -3.30310394439784        0.98391138430203
C            0.00586644675468       -2.08517939586633        0.40951122354243
C            1.36141264370540       -2.03219724397871        0.21178476875939
C            2.21138124290412       -1.08357939802725       -0.39961255079415
C            3.38999123806426       -1.66998500155593       -0.91052127809056
N            4.35240273272093       -2.13486347665685       -1.33576236627716
C            2.15172593738695        0.31395899673824       -0.48882600852696
N            3.15749895317980        0.92246746968077       -1.16731599699633
C            1.26504772295832        1.20812294950973        0.19461671287400
C            1.69053499785226        2.45480671351256        0.65678674045753
N            2.97403672931306        2.93547629204600        0.75328030190053
C            0.54909692757390        3.22315262350749        1.04987693693623
C           -0.56877781767773        2.50727344425539        0.77241297682000
C           -0.19149919423208        1.20648351308705        0.28189483227379
C           -1.14204246032789        0.25931920190885       -0.02654702054977
C           -2.51321942966266        0.57258369952080       -0.29007060946681
C           -3.09889311672434        1.81356063758154       -0.52867586198813
N           -3.67075088449525        2.78685208593374       -0.75795913171483
C           -3.23211200907950       -0.62305733124805       -0.41615958946691
N           -4.53459739889045       -0.74348451451729       -0.71053610897289
C           -2.33517418681829       -1.70432757772695       -0.17049915721710
C           -1.06885991144984       -1.21573478287389        0.02929730586599
H            1.87830195081419       -2.95438905477854        0.46842007566889
H            3.11678825660445        1.91206483944532       -1.33461622744234
H            3.82934587743213        0.36801035301713       -1.67242784748032
H            3.08522328385575        3.72518244523987        1.37046420938812
H            3.71408076558753        2.25284270344805        0.81836488219740
H            0.59973362725631        4.20158103529824        1.49069739471889
H           -1.57835069453500        2.80575142434893        0.97342743448095
H           -4.95573710656242       -1.65063198436465       -0.80070491265060
H           -5.08880795954120        0.07845302844135       -0.88053056759989
H           -2.62293442977774       -2.73937330892740       -0.15479067428489
