34
 energy: -57.760831930453 gnorm: 0.000714647132 xtb: 6.6.1 (8d0f1dd)
N           -0.72906975741892        5.03325023343378       -0.48028380143804
C           -0.63825243347980        3.92674461671305       -0.17437792000897
C           -0.52394703650919        2.57096651685704        0.18444579813211
C           -1.48564535798449        2.17693375291177        1.18536451152626
C           -2.21009832183048        1.05062149585232        1.31379108612324
C           -2.26780935904501       -0.13399897116199        0.50793355141993
C           -3.41456221006503       -0.86322340653660        0.38098291003138
C           -3.14754415758472       -2.04113901877306       -0.40016876376529
N           -4.09362879630546       -2.94886615269368       -0.75723459078635
C           -1.79215921205905       -2.09883915939053       -0.64108416619729
C           -1.18664145335440       -0.92469484696668       -0.12022780926058
C            0.17429565038959       -0.70294843295938       -0.05707424999340
C            1.13649359072113       -1.79812298804387        0.01949468657953
N            0.82991387753024       -3.11607682793996        0.11875764908855
C            2.40805424708558       -1.25648229311250        0.09534310505734
C            3.60135991041975       -1.94462263488629        0.28175052623612
N            4.59461403804844       -2.50358428912126        0.44879518574300
C            2.28849652505312        0.17644364659962       -0.00758185544979
N            3.37740655418985        0.99754376412974       -0.06203396082329
C            0.94141834528476        0.51889673281371       -0.06037177104985
C            0.50653648828559        1.86050993986519       -0.39177939407984
N            1.34018943398253        2.51815164574076       -1.25935304363580
H           -1.74718454185589        2.98974999666271        1.85637495566722
H           -2.96881749588303        1.06629241176375        2.08926966190197
H           -4.37984829143761       -0.60126789306102        0.77435111518411
H           -5.05835027063183       -2.66673942447033       -0.71331210868435
H           -3.85689433214399       -3.62779506297209       -1.46128309224283
H           -1.30310094685884       -2.82030453351151       -1.26828091658985
H            1.55486813017249       -3.72465022944600        0.46572869386348
H           -0.12111854387010       -3.34876323332821        0.36051586245339
H            3.23546724067052        1.97150963372322        0.15184651630725
H            4.25329336770476        0.59827149668332        0.23726357997235
H            1.94021778622689        1.96906117300472       -1.84979691480250
H            1.04598397065253        3.41710196532027       -1.60722174248015
