31
 energy: -54.609280509221 gnorm: 0.000456096967 xtb: 6.6.1 (8d0f1dd)
N           -1.23822133082530       -4.87384721691602       -0.29396061500591
C           -0.81851285969298       -3.81773076311559       -0.11231206951665
C           -0.30249825847959       -2.52187325512779        0.10993250357982
C            0.91684792297284       -2.57598565732160        0.83421054962309
C            1.99750523572186       -1.75696163194782        0.94422166789914
C            2.32508560037785       -0.50058508960657        0.38849405233774
C            3.61362321909460       -0.02527313422289        0.33997990368357
C            3.54195798663079        1.29559007697421       -0.19823099953490
N            4.57727522346780        2.10386788378833       -0.45731361655738
N            2.28611808139934        1.67687896448851       -0.41677674813859
C            1.49058705610711        0.63334674011898       -0.09430371756819
C            0.12146113420416        0.82431106202258       -0.09179545096932
C           -0.38442435223111        2.15487432394946       -0.10334776472847
C           -1.75474291425877        2.11079146236880       -0.00155684573562
C           -2.64714754268791        3.17789843707468        0.12241784078335
N           -3.42427437239879        4.01744198351661        0.23846347642233
C           -2.16507998318426        0.73196981229726       -0.01795155513217
N           -3.49346907212841        0.36167901137964        0.01477667411422
C           -1.02978911107425       -0.07481110620308       -0.07860437241827
C           -1.11509735086445       -1.47843095819306       -0.35471712170807
N           -2.21776148568468       -1.84488232704780       -1.05816776225608
H            1.05305602626778       -3.54573731099567        1.30639529892073
H            2.82616360910825       -2.18404171758808        1.49982688840996
H            4.51136091164934       -0.53725660026895        0.62787986387755
H            5.52174219580401        1.79706929995287       -0.31361147752499
H            4.39576911103406        3.00850959307314       -0.85482141505025
H            0.23843617300459        3.02658612950395       -0.11406271420509
H           -4.11894802799199        1.10011363147635        0.30506735983035
H           -3.69838617570671       -0.53228583096540        0.43625313140623
H           -2.78787307331538       -1.14129928794155       -1.49317270474403
H           -2.35626639241810       -2.81061659592136       -1.30558821459731
