30
 energy: -54.104177787859 gnorm: 0.000940995818 xtb: 6.6.1 (8d0f1dd)
N            2.82967524791197        2.65325446168587        1.04498995529326
C            2.44649802191047        1.63421097155293        0.65784924516506
C            2.07722230388405        0.38374373109704        0.19323152445607
C            2.99418447203614       -0.67832689665125        0.08252171377882
N            4.32350192242991       -0.62759423387217        0.28193894224721
N            2.39045525082327       -1.82424041747036       -0.30253211933435
C            1.08434215657068       -1.59930322158875       -0.36131363986168
C            0.27244523834842       -2.62716102459501       -0.89360512999927
C           -1.07176675842026       -2.83994307522879       -0.77964306794138
N           -1.93005247120464       -2.35808969283339        0.10781425882057
C           -2.18349033379878       -1.19222847237113        0.58238404283579
N           -3.05336720339169       -1.12300134779902        1.62393783674141
C           -1.75833449019684        0.07539735146332        0.02235881538111
C           -2.55163901315526        1.21592476154616       -0.08581292538502
N           -3.88846402942031        1.33572912324358        0.16329106176338
N           -1.83750525983356        2.31446522766629       -0.46746300653467
C           -0.57582325133969        1.94440032722298       -0.50430181266441
N            0.36213267316872        2.76350450372278       -1.00780044737123
C           -0.40867764870207        0.50873275673553       -0.19061387217629
C            0.78730530322259       -0.17348962221803       -0.07415566941828
H            4.73243628052511        0.19126560792447        0.69701073698588
H            4.83069028870429       -1.49474670910490        0.29385674509530
H            0.83852271294945       -3.36224679854744       -1.45029594718617
H           -1.49574162297081       -3.65594277856664       -1.36001512724745
H           -3.26360049658906       -1.97351962488438        2.11899819228046
H           -3.17221853246165       -0.24608486626413        2.10000402765490
H           -4.44632940319457        0.50181204489574        0.06980091649021
H           -4.29914049052614        2.18150142132860       -0.20060769918383
H            0.06254709710848        3.71027345712572       -1.17389916061078
H            1.33450129901257        2.61635494498441       -0.79291467207524
