25
 energy: -43.462082849330 gnorm: 0.000564754500 xtb: 6.6.1 (8d0f1dd)
N            4.18266316908238        1.40072500522869        0.59748851754276
C            3.08891732616987        1.11715673783209        0.40509201844180
C            1.70281562624413        0.85622828762589        0.20719283700781
C            0.92121113719479        2.03034420140238        0.30037442108462
C           -0.37589960884066        2.35504232507246        0.03113811868883
C           -1.57786355529602        1.63825890778165       -0.22989563804932
N           -2.58269633228100        2.40512299811459       -0.70345271670610
C           -1.90771625530585        0.30967849585258        0.08471688466466
C           -3.22566172713674       -0.08399154811358        0.38045847601380
N           -3.31754196051666       -1.37643973911712        0.69323303360329
C           -2.11095108538490       -1.90177753444804        0.52792285894797
C           -1.14283889970549       -0.93763756886494        0.17591760679257
C            0.17541712248828       -1.27786391774974       -0.12540009977744
C            0.62605334854022       -2.57324979008264       -0.36514242382982
C            2.01218045413999       -2.50003921492639       -0.51881422475334
N            2.48752457718940       -1.27196585838351       -0.33268197486024
C            1.43527399236726       -0.46720562179717       -0.10473505273361
H            1.53485245015268        2.89254915226631        0.54790609056275
H           -0.55264305896308        3.42747710363587        0.03210129111717
H           -2.46424445259191        3.39617892313097       -0.82431747528349
H           -3.48580159620995        2.00139021268486       -0.87771944557843
H           -4.09454750796474        0.54303847200554        0.47867607108123
H           -1.94067313572368       -2.94402189043620        0.71823816437361
H            0.02583463491769       -3.45433205326055       -0.46999011295012
H            2.68315457383502       -3.30383327825336       -0.76586472670192
