28
 energy: -50.653795325715 gnorm: 0.000537871263 xtb: 6.6.1 (8d0f1dd)
N            3.29057725633731       -2.16783347691370        1.20220463188800
C            2.85538563631964       -1.17785146191323        0.80093539101560
C            2.35961340387682        0.02142059342584        0.30326660874005
C            3.09382729857816        1.19281359858701        0.18363613996327
N            2.34381625405182        2.21487920902893       -0.25609405413074
C            1.08312625363543        1.80754937035466       -0.32813263777957
C            0.12627021143370        2.67796069682023       -0.91794612406420
C           -1.22537918691955        2.70492725541938       -0.77619562742948
N           -1.98215351462069        2.13021497807823        0.16554671073241
C           -2.07613014837540        0.93539971991062        0.60104872610233
N           -2.91599283399925        0.70255541885326        1.65121136575185
C           -1.46601532595254       -0.25302218616483        0.00712364433372
C           -2.09349322701480       -1.49109212368215       -0.17600093424612
N           -3.39681803817252       -1.79004576531023        0.00330249924060
N           -1.21856209485295       -2.46821835932277       -0.56301610683384
C           -0.02350448987811       -1.92758680987508       -0.53253043981826
N            1.04503023081211       -2.56623630068056       -1.00912145902276
C           -0.07778987010359       -0.48305708741239       -0.15068992076241
C            0.99690716457152        0.37305668967896       -0.00348076942304
H            4.13710420336389        1.33024781316728        0.40399526918358
H            0.57493793463880        3.44457886044461       -1.53524349603488
H           -1.78194937767914        3.42828840567263       -1.36502110747919
H           -3.20316290427462        1.50915626098123        2.18263656731278
H           -2.81880169078904       -0.16443692819102        2.15222570427321
H           -4.06314784483466       -1.03863011756500        0.05839641700378
H           -3.70563314257637       -2.68298731043042       -0.34119675474294
H            1.97578735918586       -2.24987639181720       -0.78866401981061
H            0.91690152703825       -3.53314166774414       -1.25933909026324
