34
 energy: -61.788324257159 gnorm: 0.000441029126 xtb: 6.6.1 (8d0f1dd)
N           -4.67878207533484       -0.66354810830049        1.36604014860428
C           -3.64785103042485       -0.67784792426827        0.85423494036566
C           -2.36589174506966       -0.76701412309763        0.26798076738165
C           -1.92079949110458       -2.07593095828149       -0.03004343220385
N           -2.82816970849298       -3.05620194610623        0.22148723171811
C           -0.74387128171242       -2.52883291500612       -0.64580384807781
C            0.56520909905346       -2.08938394605444       -0.75359256533438
N            1.41918047401649       -3.00151326356673       -1.32682770731122
C            1.21655261702782       -0.91247727919338       -0.27685815261161
C            2.58601832868671       -0.87773852300211        0.00940418951909
N            3.46412970652898       -1.92710876996363        0.12765228496414
C            3.01300904629602        0.47700860681420        0.16736848873978
C            4.30197723346939        0.87006274536057        0.50808940059278
N            5.37319009215740        1.17414877306810        0.80431429827660
C            1.92010721328495        1.30777939290080       -0.07273896561789
N            1.89854480211370        2.64336890428304       -0.09417172390473
C            0.74914853806057        0.47025520417278       -0.26805160155656
C           -0.49741240703394        1.03994716084245       -0.33531683716790
N           -0.64755926844863        2.39137528259802       -0.46077752373441
C           -1.94418560971163        2.61953723437134       -0.28278126244203
N           -2.49168395652146        3.84099962665712       -0.32539704419793
N           -2.69627951224912        1.52822686915683       -0.01253340383618
C           -1.85674549123798        0.49928525512146       -0.06007686721426
H           -3.72771867875912       -2.82332798604301        0.60730447528959
H           -2.60582168926424       -4.01886147907978        0.04493617152600
H           -0.86499669304634       -3.54044187921185       -1.02844484156760
H            1.01363373762035       -3.78400761437181       -1.81279585370463
H            2.29575264127124       -2.66171977899475       -1.68541822264322
H            3.07100122507424       -2.81829344733869        0.38869113621686
H            4.33211791029950       -1.69619905296471        0.58900814351836
H            0.96593217464169        3.04561337028346       -0.21680784550791
H            2.69361766191732        3.16636268741764        0.22970092761934
H           -3.49248487792314        3.90617725644385       -0.27837445981882
H           -1.94754761208450        4.61731466005154       -0.65475739347953
