29
 energy: -51.153151011065 gnorm: 0.000944112986 xtb: 6.6.1 (8d0f1dd)
N            4.94473700925170       -0.57031993670683       -1.30069059799471
C            3.89377317708659       -0.56919840592574       -0.83811366807855
C            2.58598586899498       -0.60268800411776       -0.29124003189285
C            2.07742413701960       -1.88824859694479       -0.17920649821577
C            0.90438836219752       -2.43628097452104        0.32152901605387
C           -0.39130017777530       -1.97616405870709        0.54421078637868
N           -1.24256908010421       -2.90204530801747        1.07551183743009
C           -1.01609322563688       -0.74498455618339        0.16829154080687
C           -2.37997287914850       -0.64549509486095       -0.09071936772567
N           -3.30951243848893       -1.64500189996532       -0.25288689082914
C           -2.73924964458880        0.75155487328441       -0.16460151203529
C           -4.03145624219716        1.19137156111154       -0.46948047468365
N           -5.10874769359556        1.49012529988434       -0.73489408574129
C           -1.62217982819660        1.50373695182349        0.08839428643558
C           -0.50196833472237        0.62691547329605        0.23740645021290
C            0.74759620798518        1.17892300641509        0.39797972548737
N            0.82581044614682        2.51050181350650        0.68399341352114
C            2.09547741103071        2.84652140053325        0.63628903765476
C            2.93236943258024        1.77107459872821        0.26692519023873
C            2.11777823976178        0.66219181487811        0.13961296415770
H            2.80230692844066       -2.64536257734604       -0.46737657377654
H            1.00135382519796       -3.49864725218564        0.52985145795126
H           -2.13063678390111       -2.59745884583551        1.43577348201689
H           -0.85629115764212       -3.75063867303628        1.45341554124464
H           -2.97042640964979       -2.52725540965234       -0.60622329093882
H           -4.18377947422444       -1.34368244515485       -0.65887590792404
H           -1.54148578831870        2.57201976335602        0.10462912808360
H            2.40303307289479        3.85140621392412        0.86723052075710
H            3.99697534750222        1.80804016561966        0.14190656980458
