35
 energy: -62.291164655595 gnorm: 0.000924446910 xtb: 6.6.1 (8d0f1dd)
N           -5.26809395441932       -0.82353823335316        1.46354542547834
C           -4.21344425475275       -0.63282502368995        1.04625971935978
C           -2.95281183861997       -0.31647179008050        0.53809791071473
C           -1.83308676268436       -1.11252295966429        0.47052818133689
C           -0.74242128495550       -0.33217064079250       -0.01255978607159
C            0.52286971582936       -0.87828015211431       -0.16391119896830
C            0.76281218456138       -2.26728650837711       -0.28782809038432
C           -0.14067419347223       -3.29176151291239       -0.55662222044214
N           -0.80468333813138       -4.20305252634507       -0.79321737415267
C            2.15591842742909       -2.49631538412189       -0.20847857805102
N            2.75822771490957       -3.68607212598734       -0.34095127282620
C            2.79210545846057       -1.25542272809538        0.01831693983292
C            1.85250169566663       -0.24324518227776        0.00905461930667
C            2.20945849124525        1.09160288051308        0.34333628060667
C            3.40551991981284        1.16325089457828        1.08730768650587
N            4.36528342829981        1.24503354769577        1.71829220258022
C            1.70091451409500        2.33064675467706       -0.08091240387189
N            2.44720750774757        3.42557098217770        0.22735824735813
C            0.60060047908450        2.60414085267375       -0.92684268232487
C           -0.65341255436242        2.05967244637052       -1.05492704979010
N           -1.51474047754187        2.71551459182921       -1.89771882883053
C           -1.26478298498351        0.99240794691480       -0.31015865436210
C           -2.61800610648561        0.98057227295557        0.00697551203928
N           -3.55147817146182        1.97874487155670       -0.14160336571222
H           -1.76512918140587       -2.12611342017838        0.81397054894669
H            3.75574738959167       -3.76630101287040       -0.25771140637063
H            2.20543459627815       -4.51110959193611       -0.50058178374845
H            3.85032089065603       -1.12857522430251        0.15110938369394
H            3.28806339692873        3.33281728440333        0.77109609893965
H            2.13478336073698        4.34286775707327       -0.03214333584828
H            0.73476776143658        3.52314397950587       -1.49146335054770
H           -1.12751020045005        3.37523860477976       -2.55188381481867
H           -2.34435587075862        2.22771620899897       -2.19036049748020
H           -3.20284350688559        2.92429499058070       -0.15609534975408
H           -4.39864256939945        1.84819993131493        0.39172537845585
