29
 energy: -50.365112527081 gnorm: 0.000512524639 xtb: 6.6.1 (8d0f1dd)
N            4.52940677596184       -0.41770388206537       -0.66427213239890
C            3.42648884988912       -0.27911434629273       -0.35736996546075
C            2.07572862512778       -0.10388771695053       -0.00056092619226
C            1.83107500259483        1.17368581305555        0.62547212046236
N            2.92341989101534        1.68303238765957        1.26998846431899
C            0.72713465124206        2.00540276887888        0.59176038715070
C           -0.57013461769765        1.92410994894953        0.07870375730121
C           -1.38997341115075        3.03914768999505       -0.06145657033836
C           -2.65242299088754        2.57507371632256       -0.44386496434827
N           -2.71704100856494        1.25602300516119       -0.50737954513608
C           -1.46767016872656        0.77961681690110       -0.20779111193637
C           -1.26864613186899       -0.56386289469269       -0.05672763262057
C           -2.40536179170277       -1.50015106151884        0.07212395579268
N           -3.67079908770743       -1.11229067843296       -0.01802683265808
N           -1.99971333613505       -2.72750778144476        0.34135956915484
C           -0.65018736325841       -2.69073337574700        0.30174627532552
C           -0.11736667178423       -1.42406749059269        0.07736926364530
C            1.26494134143689       -1.21740249542736       -0.23472918349200
N            1.86791774785536       -2.30410521933889       -0.77463091969579
H            2.92704172179785        2.65073512964307        1.54303556059246
H            3.81357198847617        1.22074524676973        1.18954589308154
H            0.93120336039391        2.98651280239780        1.01412981651538
H           -1.10471623137898        4.06429433808487        0.07547413507486
H           -3.52162409246461        3.16979243992296       -0.66857965884248
H           -4.41103263125865       -1.77134252627180        0.14577330149843
H           -3.79422857045858       -0.12389775959439       -0.26598267006770
H           -0.10955134992772       -3.60193341453044        0.49379536517132
H            2.84812516449863       -2.28840628702433       -1.00244278747758
H            1.32119373148381       -3.11291433311842       -1.00733536371761
