30
 energy: -54.890222645000 gnorm: 0.000987277757 xtb: 6.6.1 (8d0f1dd)
N           -0.40837712025044       -4.91279446772258       -0.13478130990046
C           -0.12293774506899       -3.79903976034391       -0.17724615946180
C            0.19953319019762       -2.43144615771483       -0.21730508516408
C            1.30202728686874       -2.08850267881513       -1.01886489802754
N            2.16184621565573       -1.15716345900874       -0.80846323786359
C            2.30377076830083       -0.02278369528675       -0.20830832303856
N            3.50099357463114        0.41715716722732        0.17359691753987
C            3.35278792015950        1.73657979207979        0.40988555994936
N            4.39113159204983        2.47015564239226        0.81598225791613
C            2.02297046774195        2.19083801365424        0.21154819315863
C            1.27579710029895        1.07531818867722       -0.10024895483430
C           -0.11708326129549        0.94746951330325       -0.15594905516952
C           -0.94668194268279        2.07306798925984       -0.26151199440907
C           -2.27383751248719        1.68083907412944       -0.11815425682258
C           -3.41506107231096        2.47262024944539       -0.24484807117262
N           -4.38356242092167        3.08503436365197       -0.34819218473036
C           -2.29654927815937        0.28904427368519        0.16369851885828
N           -3.47032017838539       -0.40970838013740        0.39806559996975
C           -0.97770517459466       -0.20279614681945        0.12981494260782
C           -0.69789444907674       -1.56171654423264        0.45788172677612
N           -1.53631452997428       -2.14297548842929        1.33955465825245
H            1.57334820659251       -2.77742202808111       -1.81570169843599
H            4.31228957422559        3.46496488653655        0.92657888579503
H            5.28083785928821        2.01698352966145        0.93367884373709
H            1.68313039520649        3.19421851390140        0.36781274351799
H           -0.61302405580033        3.07096271984743       -0.47100937039455
H           -3.50042260405053       -1.35264113188844        0.03453828674319
H           -4.29558498600719        0.12162612630375        0.15210679785130
H           -1.47043257904180       -3.12989325374987        1.52807152728524
H           -2.25174976881185       -1.59752544200181        1.79002320145907
