28
 energy: -46.631347867686 gnorm: 0.000565505946 xtb: 6.6.1 (8d0f1dd)
N           -4.53933263282554        1.89697829017850       -0.20631330297347
C           -3.47344116913106        1.48165272493724       -0.09040163983329
C           -2.20665599241299        0.90458928024539        0.02934429492022
C           -0.98926098869741        1.54207247918513        0.15190475750909
C            0.04224800609131        0.57142885180312        0.13377652947258
C            1.35759170737642        0.99920609372654        0.17352814321617
N            1.59490785702378        2.29639079512400        0.46668471631087
C            2.88667349638436        2.52058255520306        0.25713622344150
C            3.55922269194198        1.39770366048373       -0.22690743264699
C            2.63270133556031        0.35587732136518       -0.25856219543481
C            2.95383675544739       -0.91863577578998       -0.71329174949753
C            2.34171230684661       -2.15315670137752       -0.59440889923049
C            1.15595895828296       -2.61134545180434       -0.04267044801217
C           -0.07465449847622       -2.04902049209416        0.31928302431079
N           -0.95241379330934       -2.93737941348025        0.86682264232312
C           -0.60916840486361       -0.75088443781981        0.08567703272198
C           -1.98205348753949       -0.51003804308672        0.01118126923362
N           -3.02335687855412       -1.42402945038233       -0.06349687479022
H           -0.81182430087008        2.59784819589705        0.18997550763484
H            3.30399585456020        3.49219696307894        0.45902976594623
H            4.60029747553651        1.33411316484267       -0.47875489255162
H            3.94214981582067       -0.96248192494451       -1.16091381201052
H            2.97455040803011       -2.96730258968865       -0.93530043434282
H            1.15554027437580       -3.68977648768036        0.09699409089683
H           -1.79739741163359       -2.59269772590002        1.28969462203289
H           -0.62264764954213       -3.84635438112852        1.14223465418457
H           -3.90427602325874       -0.99649763964347       -0.31741723928933
H           -2.82836388066456       -2.25827664144998       -0.59869751764238
