31
 energy: -53.822540035518 gnorm: 0.000883238393 xtb: 6.6.1 (8d0f1dd)
N            4.57661285797990        1.44991208118300       -0.11550637628100
C            3.62323507600030        0.80015248789038       -0.12829915850781
C            2.49436883982892       -0.00565185440186       -0.14260787463640
C            2.50004039680001       -1.40842980313162       -0.33935817297482
N            3.60451144249526       -2.15565027117885       -0.53972166435143
C            1.18175553152624       -1.87535805449860       -0.25431408772221
C            0.30991068837227       -0.80476722256876       -0.06421378815232
C           -1.06614692413537       -0.94238419502448        0.10883919080972
C           -1.73134811972649       -2.17253454280486        0.44766391659317
N           -1.14360794784370       -3.33842427525276        0.86875209202870
N           -3.05291231842797       -2.07578306411503        0.36195681055620
C           -3.31376692635693       -0.83418057679692       -0.08888466712366
C           -2.16904448022807       -0.05901176380728       -0.21545005908093
C           -2.14232777793588        1.28106575538432       -0.69561980614487
N           -3.02551106096366        1.60591016969680       -1.66398673407024
N           -1.45948902772306        2.27232513571364       -0.19293891958383
C           -0.35871074160783        2.42121871927729        0.49978176552916
N           -0.34459659210511        3.50874311278490        1.31112093838406
C            0.86874749772166        1.72190622993199        0.37229774702546
C            1.15436035674622        0.42747837600305        0.01209878561326
H            4.48429012485493       -1.69456181596018       -0.69750933781249
H            3.51170930095373       -3.11937536958959       -0.80758241125489
H            0.88783773854231       -2.89336173617645       -0.42249323911465
H           -0.27435387928193       -3.23086024031460        1.37048971672210
H           -1.80490317810406       -3.96863430607500        1.29911456251980
H           -4.33422199541098       -0.52281555703938       -0.23110121817465
H           -3.68183247425429        0.91683721031650       -1.98404030578517
H           -3.13519231343625        2.56811938038158       -1.93375125103923
H           -1.15030091602085        4.10784410999333        1.33450719516458
H            0.51264324042997        3.82001710395553        1.73024372502145
H            1.74043542061234        2.32043687372046        0.61998933704419
