27
 energy: -47.711087968262 gnorm: 0.000510268008 xtb: 6.6.1 (8d0f1dd)
N           -3.00470572742549       -3.07514824340713       -0.97554011316314
C           -2.22526733596899       -2.30704480588349       -0.63221803107481
C           -1.24065422426658       -1.36508448905743       -0.22647632699368
C            0.03143623510719       -1.90194471900595       -0.19485841736043
C            1.28846455342694       -1.44885595024602        0.23423754332162
C            2.16815162806693       -2.53780110224322        0.46175120474091
N            2.88083955864368       -3.41925436060575        0.64892947721528
C            1.88137956250579       -0.18050200139263        0.41716200047327
N            3.10704589998813       -0.17759850518224        0.98638446935861
C            1.43269008461793        1.09344476538809       -0.04543760202499
C            2.32675000849743        2.09533821172380       -0.37794100769529
C            1.62612745335599        3.30199720684681       -0.63673969060882
C            0.30103113135980        3.09266986179819       -0.40050948926546
C            0.09707432679357        1.71128706170714       -0.07960224806732
C           -1.17282660497045        1.25229090854489        0.17104217089912
N           -2.15984116119888        2.16769789628492        0.37566680354973
C           -3.29064002394869        1.50720178926740        0.49318620460954
C           -3.13397350057261        0.11660896706157        0.30779307687697
C           -1.78235462302667       -0.10605927826459        0.12663479617359
H            0.04812482333216       -2.95802690996885       -0.45790111512256
H            3.60179672506646        0.68706222183519        1.11082939176656
H            3.55879213965546       -1.04158232607468        1.23885255365153
H            3.39117143986149        1.98807028295723       -0.49361024120760
H            2.08638694622346        4.21852830384416       -0.95659542640174
H           -0.50655543984822        3.79174684301609       -0.48428024944434
H           -4.20702931039731        2.02831609492177        0.70832326900281
H           -3.91360279467690       -0.61950306276575        0.32888508729282
