28
 energy: -50.663275725717 gnorm: 0.000792784638 xtb: 6.6.1 (8d0f1dd)
N           -4.77027683359707        1.34714036515402       -0.49407188361402
C           -3.64974829023418        1.12736612886166       -0.34939997808097
C           -2.28126519507491        0.84733818896788       -0.17071471193119
C           -1.42376635029797        1.82697762142790       -0.66304565886153
N           -0.21720262719796        2.14170263336763       -0.30580639690165
C            0.87154071878832        1.56371987652843        0.05993310263211
N            1.94597539521370        2.23489608630785        0.47686486323874
C            2.95900074197066        1.36249900961140        0.33376059822303
N            4.21633392185680        1.70777031220862        0.62394541857091
N            2.64151507049437        0.12616139888160       -0.09170227416270
C            1.29392916513878        0.12918823111858       -0.16872241345073
C            0.52371963507780       -1.00853891595389       -0.18371676453443
C            1.15981624382263       -2.30105280058994       -0.26602316956804
N            2.45599447130312       -2.46789369489979       -0.58937426598138
C            0.20754519939296       -3.28480251889316       -0.01483505220089
C           -0.99393409609922       -2.66068366188565        0.28075774096726
C           -0.88364648276235       -1.26100640791206        0.16861584882921
C           -1.99313253937541       -0.43086734012700        0.41522587078952
N           -3.01156138387867       -0.95018969043810        1.14277353545202
H           -1.87549223165134        2.56703240269251       -1.32206275556570
H            4.97024893599302        1.08990507766764        0.38457559196203
H            4.39667839009644        2.65923426064747        0.88827333562569
H            3.01132696311726       -1.61669415973833       -0.51929195832203
H            2.88255615846760       -3.36375603725917       -0.42423480472328
H            0.37535221924894       -4.34521414095540       -0.04934856492801
H           -1.89788143248684       -3.20691516597683        0.48808909886407
H           -3.89718634071609       -0.47127727439739        1.16364031030333
H           -2.97622724681058       -1.90301868951635        1.45650788916871
