27
 energy: -42.105777386486 gnorm: 0.000711097965 xtb: 6.6.1 (8d0f1dd)
N            3.73774964839501        0.68984394656239       -0.23243499430116
C            2.56552976320368        0.01613187824518       -0.10175885853274
C            2.48853401108389       -1.39012632400830        0.14417246574731
C            1.17355308076279       -1.73551308868848        0.23048128805685
N            0.67661455249796       -2.97566832157171        0.50672204248692
C            0.34577099089278       -0.52032077005643        0.06219381266255
C           -1.01114017973585       -0.55839084599146       -0.12455526712070
C           -1.72413464152379       -1.74288366759244       -0.55143103046042
C           -3.05361808410309       -1.47248012081311       -0.57526595798048
C           -3.25870418051661       -0.14139876119962       -0.09718724067060
C           -2.05072638729141        0.46417411667278        0.12465529689172
C           -1.94522024688410        1.73731054188423        0.76770636095157
C           -0.93551847303355        2.63952866243411        0.76811353771809
N            0.13486734326452        2.74930601616319       -0.03642887618818
C            1.02143817305192        1.92825617544086       -0.43162680040950
C            1.28642315055895        0.57184848578317       -0.06446837339601
H            3.70482912487727        1.64156876951995       -0.55701164454037
H            4.56295030542067        0.16038307319304       -0.45568839554266
H            3.33438542684963       -2.04484549814766        0.24492697238714
H           -0.25819022863632       -3.01767547025422        0.87946630163532
H            1.33197745263300       -3.64136008107344        0.88420792364537
H           -1.25184379014700       -2.62715208653877       -0.93595212906983
H           -3.83617968414445       -2.13278309266369       -0.90557727071313
H           -4.22094834024665        0.31791930482807        0.04230838615165
H           -2.83571798257144        2.02112574949479        1.31707083010270
H           -1.06043041251744        3.53339799612372        1.37434594126818
H            1.74307781915902        2.37126964895371       -1.12292479247978
