29
 energy: -50.360236421395 gnorm: 0.000949440762 xtb: 6.6.1 (8d0f1dd)
N           -4.62627930324892       -1.75707752856435        0.04346594474688
C           -3.55022674491729       -1.36552113744976       -0.07497287315313
C           -2.23999083208339       -0.87738604174946       -0.20617858589121
C           -1.40993377045361       -1.62718878681381       -1.08680020292523
N           -0.16477033750213       -1.89653736216722       -0.99837374010719
C            0.89277588601806       -1.50203421146562       -0.31783314951025
C            1.92310615687641       -2.33017043839656        0.05732082520748
C            3.02773630291897       -1.52089883952429        0.44130517723880
N            4.20911525319024       -1.99815826246694        0.87282055228757
C            2.69902443415574       -0.16919944924648        0.27974683446611
C            1.35744478680474       -0.08581273734537       -0.09198076500685
C            0.55561970800256        1.03890912903537       -0.11779905207581
C            1.05223928790964        2.39384551409271       -0.22213368430598
N            2.33570151195574        2.76282331142574       -0.49376550599780
N            0.09028975484009        3.29170045956059       -0.08713938756848
C           -1.03354860010131        2.60212811523418        0.18885645911508
C           -0.86250644061128        1.22059578109074        0.14179971188634
C           -1.93752059106834        0.32666335204863        0.44763992259581
N           -2.84574148469064        0.79342555143621        1.33584467476858
H           -1.92686464237342       -2.17290975997886       -1.87538090180417
H            1.90992182893753       -3.40244608930313        0.04438657487664
H            4.30974844450178       -2.97626057056014        1.07745610200579
H            4.92682321738533       -1.36568538173884        1.17924573595947
H            3.33355386791276        0.64988596485517        0.55731611268422
H            2.90269239292251        2.09378716518902       -0.98992861625584
H            2.42823546490666        3.72324995728528       -0.78786624702025
H           -1.95111363582044        3.14673563184096        0.33079295329166
H           -2.75519565556688        1.72996820637660        1.68879354814336
H           -3.72623095780094        0.31578788220051        1.44516723874744
