31
 energy: -54.603785658280 gnorm: 0.000925476839 xtb: 6.6.1 (8d0f1dd)
N            1.14876460038943        5.11328071263718        0.47611197292866
C            1.14099817884526        3.96673240158569        0.40437304341754
C            1.10324137288496        2.55334571021688        0.30527621901920
C            2.28763390069751        1.94243688007044        0.66985690491112
C            2.77112453031730        0.63667761675554        0.61519464404614
C            2.25735470453885       -0.58050139518309        0.22511859950401
N            3.15854314399687       -1.57881161704226        0.10614807581287
C            2.49164665588921       -2.66561214792175       -0.28542683638761
N            3.12233791707371       -3.82165958679548       -0.53356398008209
C            1.09114024799390       -2.43525085561040       -0.37055787195559
C            0.88185026374666       -1.10703800558576       -0.05903282513876
C           -0.39256620597890       -0.50996093394780        0.03675919793165
C           -1.56144415660043       -1.26437822741703        0.13805092695063
N           -1.69804525292904       -2.59905262297324        0.40449287052123
C           -2.69681570418275       -0.41958834261613       -0.08941286968052
C           -4.02420744636600       -0.83604023221056       -0.03139096342465
N           -5.11894146136129       -1.18505883791117        0.04262205703920
C           -2.25036389613717        0.87060975326497       -0.35067673809747
N           -3.05717100576547        1.90543442927972       -0.68259955649218
C           -0.81297053228249        0.89754281724850       -0.17529423584449
C           -0.17785467873263        2.09758504617558       -0.11867380702731
H            3.03285431618536        2.65387367898255        1.01594558514254
H            3.82142954316109        0.54674397711111        0.86959135073869
H            4.12739254144156       -3.82884832004077       -0.51640657762712
H            2.62824645115117       -4.59636195690857       -0.93850369342930
H            0.37769651711892       -3.14996972889812       -0.72776300657780
H           -0.94242075053334       -3.02961735046317        0.91535019781544
H           -2.62414726994518       -2.88705431980793        0.68444369127525
H           -4.04952243754101        1.78303376877856       -0.57368741347538
H           -2.70776876017316        2.84665733206463       -0.69637422019113
H           -0.81696982840291        2.94604209226743       -0.35346674232568
