21
 energy: -35.778886425638 gnorm: 0.000806450750 xtb: 6.6.1 (8d0f1dd)
C            0.63880019305656        2.68695945641446        0.08109138215392
C           -0.66844055802726        2.56235662795838       -0.45300223056908
N           -1.53262746556053        1.63633899457612       -0.27888619305520
C           -1.68282111348210        0.38353035183865       -0.01786357988875
C           -2.84590401953870       -0.25861088446910        0.40635007848957
C           -2.64024820346475       -1.62026960919763        0.17312473453629
N           -1.41939428957711       -1.91298452470538       -0.26766629968909
C           -0.72605534948800       -0.77021402851043       -0.29165359189949
C            0.64199485502771       -0.72446947609202       -0.23372177636372
C            1.43949648439039       -1.91915676216165       -0.29925626262376
N            2.71211772669618       -1.67846375942978       -0.13047408101183
C            2.83044716678443       -0.35093971406848        0.12258655729437
C            1.62113230413764        0.33063932135758        0.06626257747369
C            1.56914356831625        1.71837950858194        0.32250513133442
H            0.95815111094183        3.71026931912999        0.23564519744468
H           -1.05489884952244        3.42969003013324       -0.98514408057618
H           -3.74952595886813        0.21230079640697        0.73786909704083
H           -3.36202235210571       -2.40810748839094        0.30394794583664
H            1.05456079672421       -2.90209342072221       -0.49180930219608
H            3.79928335770385        0.06949674021303        0.32475120254789
H            2.52303423205571        2.09323419423728        0.68295106642060
