30
 energy: -50.084861268996 gnorm: 0.000749140803 xtb: 6.6.1 (8d0f1dd)
N           -3.52359883937863        2.59800371365118        0.13144474820460
C           -2.52733340672571        2.02811254624191        0.02606781762920
C           -1.28587771583185        1.38003386374031       -0.09970834176931
C           -1.34836648627056       -0.02842525721628       -0.19901951707647
C           -2.54767418213454       -0.68365867484500       -0.36998754938132
C           -2.35953231829256       -2.06952304387058       -0.13392233777302
N           -3.32771017878677       -3.00489085101466       -0.21700960125964
C           -1.02633704226125       -2.28381485265576        0.20977756242371
C           -0.32245301991103       -1.07453160831389        0.14077651056738
C            1.04978159234515       -0.99562534437286        0.35274802168054
C            1.79579107828795       -2.09145598329354        0.86999759097423
C            3.13901415212714       -1.87185607487705        0.69288768682387
C            3.30855165549515       -0.64605218507261        0.01428201056816
N            4.52027435416323       -0.14799779707825       -0.38929841051851
C            2.04382152696710       -0.05034066553374       -0.16334118327265
C            1.87256153720828        1.16885915241662       -0.82157123734993
N            0.99446768494658        2.10198198976674       -0.65862091039000
C           -0.16826777405053        2.24916108161602       -0.05837021394871
N           -0.34178679724209        3.47303141584654        0.51690075919723
H           -3.48661631862543       -0.22295828785206       -0.61391274604932
H           -3.09733714619752       -3.97672275109525       -0.11472528860070
H           -4.22757795910278       -2.75962465190167       -0.58884923196008
H           -0.59658185429446       -3.24747716862986        0.40110346912080
H            1.36849688845405       -2.94762651307470        1.35536980843211
H            3.93984402787373       -2.52138428534433        0.99834100541905
H            5.33227372141232       -0.53546382142233        0.06288598997827
H            4.57634545236371        0.83487923098890       -0.59574452948276
H            2.67173576065356        1.46788590855695       -1.50105638336525
H            0.36195412211910        4.17153767940839        0.34647922802222
H           -1.27377797971664        3.77946915913394        0.74265133184523
