34
 energy: -61.786986900204 gnorm: 0.000652848478 xtb: 6.6.1 (8d0f1dd)
N            3.22222277726670        2.21077707359524       -1.52042359005326
C            2.33354978988066        1.83023663743464       -0.89410844475084
C            1.18077308487756        1.40403961602391       -0.20443297252627
C            0.27733746159021        2.41842628396018        0.12612870360111
N            0.68169066987637        3.69028617043397       -0.13561543694123
C           -0.96347244499772        2.35505459180957        0.82271391620131
C           -2.00448936632740        1.46987119611121        0.82064858193408
N           -3.14598973156713        1.86858645365946        1.48657407473399
C           -2.14419810258020        0.20835601830724        0.14090529214787
C           -3.37901333852478       -0.33536162157925       -0.24987736623207
N           -4.59492534613566        0.27546678398212       -0.29346390732232
N           -3.30590546987205       -1.65092800038275       -0.61022946520763
C           -2.05758485167398       -2.01088656590262       -0.41097813883497
N           -1.56644551725090       -3.22405291623512       -0.62252965252402
C           -1.21418883377945       -0.87093113867634        0.01327830479353
C            0.14347157087969       -0.99989864148778        0.14582617032942
N            0.70652121414210       -2.25934618642248        0.22215526065900
C            2.00955168088080       -2.10496276312388        0.28127128972424
N            2.88377953742201       -3.12282472507183        0.37298319367569
C            2.38653185545032       -0.71198298664387        0.19101606892831
C            3.71025796021718       -0.29418879176971        0.28282796526525
N            4.82892752177747       -0.06324610448783        0.42670779152931
C            1.20148055516835        0.01147498997486        0.10819086737206
H            1.56656223739868        3.85785822799682       -0.58432859819372
H            0.06903668127819        4.46491292179080        0.04167213332169
H           -1.17420849354453        3.27745104173228        1.35831545345965
H           -3.04856461863262        2.63561147263861        2.13272598147935
H           -3.78139256595950        1.14164898424886        1.77234062028007
H           -4.60420233288665        1.27956349453496       -0.37452971517328
H           -5.29119125199233       -0.22737633118263       -0.81965418758470
H           -2.15779679268322       -3.95434399191780       -0.97651896474844
H           -0.57766901773562       -3.32832707740401       -0.37760116631116
H            2.54121691283383       -4.04995143818506        0.55055381029094
H            3.85354367410935       -2.91608424526397        0.53824174107796
