26
 energy: -42.399441996073 gnorm: 0.000480750791 xtb: 6.6.1 (8d0f1dd)
N            4.22060071983411        1.35678708970097        0.42911613372580
C            3.03949811493332        0.75010025349603        0.18897762489694
C            2.83424056159891       -0.65728597778010        0.22966492295779
C            1.52818738197406       -0.91798648074727       -0.10408542534370
N            1.09874774417896       -2.10598028835073       -0.49968504128678
C           -0.06902835393733       -2.64267208331158       -0.56438655500065
N           -1.13540723427705       -2.47070222407897        0.19678408654352
C           -1.76401123933005       -1.41162091696087        0.58108010893209
C           -1.68638147904980       -0.08769598852525        0.11163968238574
C           -2.77976950232972        0.79179458363419        0.16108556830028
N           -4.05506581156254        0.50032531596189        0.57029953454826
C           -2.35849085852362        2.07291833725815       -0.27064024578192
C           -1.01286279477561        2.02800500959434       -0.51714294558839
C           -0.52274341562284        0.70421433501609       -0.31323428616932
C            0.83255277036799        0.42128654698704       -0.26041640695048
C            1.84773338897021        1.38157903993092       -0.16090644017154
H            4.98017260945736        0.82986471755421        0.82119376510747
H            4.27204479868348        2.35953070989058        0.45004057866386
H            3.59104337248216       -1.39135334361517        0.42856726301919
H           -0.13310161369815       -3.52054155590591       -1.20813477625140
H           -2.56371859639615       -1.62111556702814        1.29201985437875
H           -4.77280207760970        1.14553038082809        0.28400924628515
H           -4.33061311698542       -0.46727253905773        0.58448167898272
H           -3.00152941028696        2.92967954642687       -0.36767596004204
H           -0.41181977255270        2.85209279129068       -0.85067680895591
H            1.72165432025695        2.44402052029165       -0.24027126108517
