29
 energy: -55.978964677070 gnorm: 0.000614492129 xtb: 6.6.1 (8d0f1dd)
N           -2.09599338895207        4.59997560399542        0.70001792690802
C           -1.65099135538217        3.56012876930940        0.49608521978803
C           -1.13342770051680        2.27664689234234        0.22868887824422
C            0.21793807482753        2.10462090513162        0.42776383742928
C            1.14249228954047        1.08303970107263        0.17060743521869
C            2.50268480855763        1.37496900705709        0.26167864853878
C            3.28696428079784        0.24002662427163       -0.01759068390771
C            4.68261161295433        0.17037213361613       -0.05004577791957
N            5.82763696529978        0.07885267703400       -0.07933380136923
C            2.42311076731968       -0.83962174830472       -0.24395744297200
N            2.73991844647774       -2.10016937384031       -0.51642679411549
C            1.04748625576990       -0.35275908206037       -0.14552839289957
C            0.00312624496586       -1.22908867817913       -0.18970210336819
N            0.20186058299523       -2.58385489134491       -0.20223630725750
C           -0.91732784744733       -3.14708828816632        0.20282318997569
C           -1.96120144235969       -2.22668765980202        0.44025615390063
C           -3.26759335641809       -2.52416908353073        0.82837387876677
N           -4.34085267514443       -2.77461752347767        1.15201885310948
C           -1.45108452948258       -0.96727904983901        0.07671707799389
N           -2.16582374645474        0.08524798024313       -0.14915442241859
C           -2.08307880929603        1.35659512449066       -0.36779866519523
N           -3.04862938057233        1.89696634779302       -1.13624140486488
H            0.70521007402080        3.00682084419357        0.78930334900440
H            2.90820746008086        2.34103166559034        0.50428333796733
H            1.95375962010924       -2.75584263089947       -0.53530660589602
H            3.70310373338222       -2.39218273299474       -0.52441930989836
H           -0.98308943534532       -4.21604159601076        0.30979934057594
H           -3.15825859568923        2.89616761842915       -1.18725675127774
H           -3.78911635053705        1.30434673478029       -1.47286193866294
