27
 energy: -46.933938291253 gnorm: 0.000619212088 xtb: 6.6.1 (8d0f1dd)
N           -4.14418189877702       -2.66265896648665       -0.03326825455542
C           -3.11700998548249       -2.14822672795457       -0.01966349796497
C           -1.86054649794145       -1.49138239325066       -0.00804980474054
C           -0.78272412995700       -2.39117938018898       -0.01476318433570
C            0.58487823871676       -2.27915826158408       -0.01351602043305
C            1.48452323055596       -1.20966212969515       -0.00851062032140
N            2.77904981256406       -1.50331674507313       -0.01160563118454
C            3.41600575600205       -0.30255242230233       -0.00687324799052
N            4.74763680943023       -0.22797044007917       -0.00881753521991
N            2.62685045972761        0.76893347437383       -0.00101798579719
C            1.36735352567747        0.28334552278516       -0.00148212469679
C            0.30645893390642        1.16567287112503        0.00487914876028
C            0.54918335401109        2.55385162836115        0.01552380973937
C           -0.64529950262052        3.24135814557903        0.02377684227367
C           -1.70408638418079        2.31756516441874        0.01594680189182
N           -3.01667112624476        2.67636975172581        0.07242746665944
C           -1.16925079218659        0.99672687702774        0.00827808366021
C           -2.00287345021516       -0.09632720317615        0.00669829365137
H           -1.12493685331844       -3.42325921696541       -0.02323492202812
H            1.11859199473874       -3.22305605721565       -0.01962671714816
H            5.28300895860123       -1.07681097480579       -0.01009929090092
H            5.19331805946165        0.67101928262948       -0.00186291544291
H            1.53518384526800        2.97522413567396        0.01516963389655
H           -0.76448244260195        4.30987804877212        0.03311905719326
H           -3.23584373591026        3.63850853500869       -0.12091447075191
H           -3.72626273685929        2.00580948039177       -0.16884593579913
H           -3.05658426146554        0.17734462130547        0.02260358128508
