26
 energy: -43.197582765813 gnorm: 0.000497010069 xtb: 6.6.1 (8d0f1dd)
N            4.41862637679055        0.26945199809482       -0.91343023208749
C            3.30330686142256        0.21925388426897       -0.63888689370426
C            1.94288140980143        0.13139935032090       -0.28203583368945
C            1.18171198169261        1.26412553388049       -0.46916190831659
C           -0.11471214615953        1.63928000531325       -0.10143321342331
C           -0.44265231755428        2.99616056233397       -0.06727828555429
C           -1.77022295659902        3.15354733540595        0.35627006823982
C           -2.32752135984372        1.90795815388596        0.52071678155247
C           -1.35296335686668        0.90811783000998        0.24789646047680
C           -1.68693780009926       -0.42763956574485        0.12252621381218
C           -2.98969123134718       -0.93212704723442        0.02586821741677
C           -2.93773897206592       -2.23448720097477       -0.45796983837311
C           -1.61295762416791       -2.64548562725905       -0.61026822762613
C           -0.78397772811825       -1.60998788925638       -0.18769195267213
N            0.47252378943792       -1.78632431686227        0.10010927700464
C            1.56338729506701       -1.12972136624861        0.31612121988273
N            2.50458592147855       -1.75748110573946        1.06300063037398
H            1.75062832402937        2.09293120986265       -0.88393006542566
H            0.23764253027297        3.79682323041483       -0.29546978080011
H           -2.26400886848746        4.09487671346003        0.51701405086756
H           -3.33730341757792        1.70732924390781        0.82236309277661
H           -3.89117978738209       -0.38283361801379        0.21376379976981
H           -3.79820152990861       -2.84155137494794       -0.68109113236210
H           -1.27671986458312       -3.61195818691396       -0.93071160352515
H            2.32856703979994       -2.70514892334666        1.35093918519136
H            3.45061375106937       -1.41562255201625        1.06935765939594
