28
 energy: -51.459813281329 gnorm: 0.000456793770 xtb: 6.6.1 (8d0f1dd)
N            5.87290024198838        0.92187783727661       -0.36884632056777
C            4.77990136305841        0.62144655539394       -0.18084857861442
C            3.44625008923745        0.26001479973935        0.04061755282995
C            3.00259627731619       -0.88462341030969        0.70225180697383
C            1.59832186885475       -0.91110180865951        0.64847037085811
C            0.86029585590462       -1.98629876005592        1.13389887545016
N           -0.25254768727414       -2.47085966097869        0.68065606027284
C           -1.28850140796163       -2.11974440721663       -0.01381188483904
N           -1.84333889003281       -3.06507771995915       -0.79968623427484
C           -2.00791946695280       -0.87241375824255        0.10730644166370
C           -3.41169661082825       -0.98891727231688        0.01918642250381
N           -4.54308331495935       -1.16383553160818       -0.07483600391493
C           -1.50293835443929        0.40891776655437        0.19655478994080
N           -2.38796792004471        1.42143382841058        0.24922902219680
C           -1.70013826916950        2.54871850615427        0.06638011617553
N           -2.30221807659494        3.73976080542739        0.06369098134629
C           -0.30499085920309        2.30333209687366       -0.10702106753640
C           -0.11097701079275        0.94834711057084        0.01754199786180
C            1.16191568106486        0.32452008730523        0.00175195485466
C            2.32081571485710        1.01102689380501       -0.35365234486481
H            3.62492135012178       -1.65557748012905        1.11741940261001
H            1.33843012562776       -2.62505564849135        1.87318962627414
H           -2.76313618553606       -2.92492207084567       -1.18295337439110
H           -1.43913332585342       -3.98600239495798       -0.81294645331752
H           -1.78254252702508        4.58435893529178       -0.09208955272107
H           -3.29436929649630        3.77736121411811        0.22091816515109
H            0.43683371177868        3.06477867590884       -0.23906406664307
H            2.36904398415449        1.96081106734168       -0.85168534128009
