27
 energy: -46.921287154498 gnorm: 0.000623212325 xtb: 6.6.1 (8d0f1dd)
N            4.59938917798772        0.70918001919189       -0.46554000488020
C            3.46828011493554        0.68331425188730       -0.26535838134624
C            2.07048000034922        0.69793423108550       -0.03430628621991
C            1.56307627066597        1.99207687537316        0.01383244366002
C            0.33139741334382        2.57860922109568        0.24480199315476
C           -0.99724143221416        2.14386951823545        0.29513195096511
N           -1.88667964487767        3.11660006417329        0.61443136011416
C           -1.58441870131392        0.88250476286434       -0.01594719348529
C           -2.93487999580485        0.74819861840291       -0.32159267973518
N           -3.35483379934621       -0.52696005889933       -0.45332350497026
C           -2.31273515230933       -1.29011233327511       -0.18540358058399
N           -2.34302213281711       -2.61571028558807       -0.17419558410255
C           -1.08857706996377       -0.48713762928916        0.05228735207291
C            0.12330525720749       -1.09279015603163        0.21038801615405
N            0.16388024422063       -2.46683728370694        0.35114123885925
C            1.42666702969333       -2.81936998990350        0.40332026364614
C            2.30268727421517       -1.72476445863856        0.28161795907325
C            1.51832889652448       -0.59014355843096        0.16678810640714
H            2.35197609056913        2.73217168145895       -0.09919694896554
H            0.40931187965684        3.65259635115790        0.38873196603978
H           -1.56761822786058        4.04814847196964        0.81541100211453
H           -2.86068362817465        2.90532992493096        0.72390435229317
H           -3.65055312334466        1.52935483043927       -0.51239257189513
H           -3.19072096506959       -3.09091393914569       -0.42969425073298
H           -1.44501590540381       -3.06289136302186        0.04055191270501
H            1.69906911182296       -3.85368090893873        0.52513987420049
H            3.37396251680968       -1.76986369199816        0.28566045795757
