32
 energy: -53.524926915691 gnorm: 0.000626056152 xtb: 6.6.1 (8d0f1dd)
N            4.50159979835095       -1.36827152773025       -0.50511652511569
C            3.53796158000642       -0.74950615352053       -0.37110589162975
C            2.40927598937981        0.04702496395934       -0.23690661571083
C            2.40016760802434        1.47188911980440       -0.38788192543697
N            3.49109805485581        2.19884308537836       -0.69467162695215
C            1.11533764717869        1.95002667513375       -0.14573609791520
C            0.24933912613476        0.86688774546670        0.06036126103974
C           -1.12859187735604        0.92092205877945        0.17329699803287
C           -1.84430987398442        2.12473021527932        0.51863335391859
N           -1.26382554951942        3.28997609868950        0.99440620738634
C           -3.19004114080289        1.90826099223242        0.33899534784259
C           -3.36407408579776        0.60784723997333       -0.17086446859425
C           -2.14529984354515       -0.04863460495496       -0.23776188566206
C           -2.05585698149297       -1.37966067454976       -0.77075949166682
N           -3.06490210733733       -1.70577826309578       -1.63863928697806
C           -1.25407309598532       -2.41681474503298       -0.35069681884442
C           -0.16337885384137       -2.38019934112300        0.55719682431275
N           -0.03487695195498       -3.41468747164763        1.43155034136135
N            0.83467228607986       -1.54772163856297        0.54054120358684
C            1.10678545891271       -0.36115643301768        0.07293736034289
H            4.34053779818780        1.72754298963132       -0.95406171728727
H            3.41012415815652        3.18562076511111       -0.86290514777471
H            0.81826013986669        2.97433465128102       -0.26067932941388
H           -1.91746753359734        3.89092632248504        1.47662148025680
H           -0.40857213460472        3.14672716034883        1.51234270132108
H           -3.97924410195889        2.60435204658862        0.55871468612224
H           -4.32260920592554        0.17385665298445       -0.39436297467469
H           -3.55805750048986       -0.96113852498634       -2.09695860216620
H           -3.02872274169495       -2.59392984755520       -2.10762795865514
H           -1.53786586362201       -3.40695992403706       -0.68951786866710
H            0.84476856157210       -3.52093780952884        1.90795094992652
H           -0.63236077679526       -4.21682118099395        1.34536407139355
