27
 energy: -51.729708309612 gnorm: 0.000984623415 xtb: 6.6.1 (8d0f1dd)
N            3.93295913862210       -2.42351661773604        0.40034398908294
C            2.82965393608072       -2.15650550975962        0.21991760468200
C            1.47365149383681       -1.92142812038671       -0.01198544771664
C            0.58221293263969       -2.93252769429070       -0.45451643280552
N           -0.64211081661117       -2.49687057092094       -0.63697234054449
C           -0.64958152793881       -1.17612444467429       -0.31624347085735
C           -1.87420927483506       -0.58127464966506       -0.13355595549667
C           -3.01310705916453       -1.40366405679723       -0.28437825578385
N           -3.98984011522007       -1.99923603043716       -0.37980647287564
C           -2.17657764167199        0.77673674442833        0.30034268261185
N           -3.21174570341378        0.91475776542121        1.14437147301113
N           -1.63262794647042        1.84794054650446       -0.16749222810634
C           -0.47635398486624        2.25950677635439       -0.62383855883137
N           -0.49819841777829        3.25367704808177       -1.52314948700940
C            0.77443054421701        1.86484082657470       -0.07614712373995
C            1.83496411337562        2.72159082284118        0.19334317316237
N            2.88826704600959        2.07368691410993        0.72943720650853
C            2.57633454538030        0.79589150857837        0.76504152010907
C            1.25317230506543        0.54306297006759        0.29377557424901
C            0.74052955788447       -0.72452993815240        0.02508302474620
H            0.83856374623147       -3.95968155183999       -0.64513447177706
H           -3.50940671582932        1.83648154119235        1.41500742961419
H           -3.77681341629046        0.11966724114857        1.39199647244061
H            0.36160734495804        3.68840854454037       -1.80653900997660
H           -1.37545012107417        3.62395844176311       -1.84624060795292
H            1.85887244245237        3.79094223988463        0.08086913416028
H            3.27144504271142        0.06947818616830        1.13886198559597
