32
 energy: -59.133836426804 gnorm: 0.000992689245 xtb: 6.6.1 (8d0f1dd)
N           -4.62558541976312       -2.76477623646847        0.47015252840141
C           -3.51501293936668       -2.57678698134385        0.23705335138586
C           -2.16775592775007       -2.32478669780342       -0.01184702311921
C           -1.19446429697160       -3.24398590685944       -0.42705814568403
N            0.00036746079793       -2.69459699986731       -0.54870034617976
C           -0.11403690391259       -1.36415320843766       -0.26288452955691
C            1.01397645120785       -0.58682310665738       -0.16991730290453
C            2.33451640859299       -1.20251136477568       -0.12708389958553
N            2.55446823665256       -2.51293201520669       -0.22532969355968
C            3.27738910638306       -0.19106979168513        0.08345538650691
C            4.64770228453827       -0.38255205509376        0.25958625933835
N            5.77528515743621       -0.56258697065250        0.39797655689381
C            2.60015710618961        1.04774369025379        0.05450940032593
C            1.23176590533000        0.85662245675377       -0.09235646681106
C            0.37672359682760        1.96716078498642       -0.36506406265873
N            1.00261007613590        2.99887301547206       -0.97532728153713
C           -0.96473973449499        2.20550586451674        0.00231697393296
C           -1.39446989077843        3.52970515612388       -0.23082556265586
N           -1.75161394798547        4.60675057311102       -0.42950255659661
C           -1.96406939218599        1.41180757739564        0.63810285259251
N           -2.93503095517121        2.11098019963709        1.27789404742939
C           -2.18450567664603        0.02914671914023        0.60268254003322
C           -1.52343456400820       -1.06563113307002        0.08592955916702
H           -1.34214480788145       -4.28947752869866       -0.63426374471527
H            3.48318711062893       -2.88325239799388       -0.12027232368004
H            1.72420616403781       -3.08113585325669       -0.40991112212616
H            3.10032817872361        1.98978730896330        0.19702108126866
H            1.95357096624582        2.89773119596377       -1.28114248032399
H            0.52686186390815        3.87139195603002       -1.13669409093442
H           -2.93531678328722        3.11736423406739        1.26769265196282
H           -3.76273058050158        1.63966595118994        1.60033510848356
H           -3.15551782563739       -0.24024460203239        1.01259491610942
