30
 energy: -54.889856556008 gnorm: 0.000906360600 xtb: 6.6.1 (8d0f1dd)
N            4.55644297186886       -2.26874439160067        1.21454784708192
C            3.65741968335763       -1.75727446633816        0.71523915504352
C            2.56347531840171       -1.11684399652543        0.09216264076120
C            1.94998259750184       -1.90755471948606       -0.98030713765497
C            0.66179979974674       -2.12370566766586       -1.23360971410724
C           -0.51466775945820       -1.64137585411093       -0.53338771063920
N           -1.53074963633527       -2.46781122726092       -0.42022422247018
C           -2.57353534055054       -1.77079573426940        0.11740757501562
N           -3.73729934267502       -2.38857088267383        0.39443636711113
C           -2.25908096111663       -0.41333068615439        0.25360535538164
C           -3.12206013759514        0.51655842575001        0.81168545294844
N           -3.88887989322346        1.25374828017218        1.26051920889401
C           -0.88050039337365       -0.28920417385900       -0.13388882202093
C           -0.10561670724040        0.85800596366451       -0.20243412395593
C           -0.61978287419214        2.23909894089685       -0.43743228157744
N           -1.85141991163835        2.55601140632155       -0.83032366537678
N            0.34158926950977        3.13254642345086       -0.39659698021521
C            1.48192492698471        2.44781805542338       -0.09415829732116
N            2.62879028635901        3.11564355860943        0.07714599249826
C            1.28442831994823        1.04912259368643       -0.02915083204360
C            2.30425169257628        0.15780818255971        0.44924377098547
H            2.68057096488698       -2.42750663783865       -1.59111917904500
H            0.40777054036700       -2.81741229329430       -2.02590941262293
H           -4.45040001435242       -1.89702716359524        0.90442680112383
H           -3.74724618311942       -3.39333456480467        0.37889129641015
H           -2.04536763217784        3.53489410282832       -0.96577667317767
H           -2.62534600512579        1.93326927405429       -0.66181925556827
H            3.47697420976289        2.63460144247382        0.31762233439934
H            2.60625219605543        4.11972443023479        0.05310848899709
H            2.97482344054763        0.59713165955128        1.18494409074482
