29
 energy: -50.377452818218 gnorm: 0.000739836299 xtb: 6.6.1 (8d0f1dd)
N           -3.80073029759373        1.90312567903080       -0.01185263930323
C           -2.99110083033822        1.08340813429026        0.02114417162815
C           -2.14264854219691       -0.01925901791155        0.02460257017496
C           -2.68130136208334       -1.34782245428277       -0.13857312934507
N           -3.99620644311835       -1.60283114655965       -0.25164017402653
C           -1.63127304726355       -2.24578015539520       -0.13750793972526
C           -0.41447199065667       -1.54965593472200       -0.00033592937230
C            0.76437209947528       -2.22150324422517        0.21661224259405
C            2.11021195084935       -1.78393141273966        0.32978069187522
N            2.95522960531792       -2.61763137734394        0.99238618292412
N            2.70395638018569       -0.80655008780561       -0.30053764996704
C            2.40577345262519        0.39771141765319       -0.70265892647840
N            3.19140687790887        0.91324952777704       -1.67046538814114
C            1.45330515652981        1.26704358751263       -0.10022347233737
C            1.65934905393447        2.61912528217278        0.15259047056238
N            0.57739459788386        3.20410038642211        0.69787115954019
C           -0.37138631641469        2.28633732251474        0.73230185323612
C            0.07749554698294        1.01795987693674        0.27752952436039
C           -0.75247875553359       -0.09276257084821        0.08747072790041
H           -4.32244856545987       -2.53381748490914       -0.43718960380094
H           -4.64625945205657       -0.83622626041532       -0.28910319424939
H           -1.71869653368585       -3.31251528061026       -0.22643952570100
H            0.64946646904038       -3.29131045784770        0.35962577376445
H            3.90863668250013       -2.32904936016998        1.12308770341445
H            2.59383582449918       -3.37134986072237        1.54711426769561
H            3.96616726642183        0.37769141820001       -2.02068139750604
H            3.10779221124520        1.88582340390575       -1.90551878801135
H            2.57189856866600        3.17633439754132        0.02795745213185
H           -1.34147151726537        2.51663349335001        1.12981900596332
