35
 energy: -61.500561722872 gnorm: 0.000847997994 xtb: 6.6.1 (8d0f1dd)
N            4.50033899081091       -2.30424096346951        0.70591720769204
C            3.71384240311466       -1.49821347296205        0.45937087631633
C            2.80065518057423       -0.50120158358510        0.15006929157978
C            1.40167834370626       -0.55318235191779        0.19356884925910
C            0.74348051032749       -1.68452205830568        0.67679323613146
C           -0.53182604502945       -2.19194879067795        0.53203932967119
N           -0.74013802153581       -3.42269014233093        1.08705598167721
C           -1.66754119180721       -1.67122705927071       -0.18369547756857
C           -2.49296396365823       -2.68354601119832       -0.70063299645082
N           -3.15649929593742       -3.51733760730176       -1.14525799870952
C           -2.16109590806552       -0.36691237586172       -0.32631160982381
N           -3.42925786582159       -0.27595360801673       -0.83776701273997
C           -1.60615594777218        0.88092161813953        0.07244932708364
C           -2.41861626738874        1.99507673043707        0.36561319010472
N           -3.76143545870711        1.99354855930274        0.64707287956959
C           -1.65234378549885        3.18021007776041        0.33734664327437
C           -0.36823679104862        2.86114692823487       -0.03431207521096
N            0.65735693914502        3.69588288030615       -0.27007648507680
C           -0.25731048072578        1.39964932729303       -0.10834426229747
C            0.97046065493960        0.79959036515536       -0.20733260522848
N            2.08052442301109        1.55471941981835       -0.51994514650305
C            3.14740494090187        0.80571959841278       -0.32713855291452
N            4.40385252334075        1.25099073027301       -0.51641038242239
H            1.42558647962208       -2.37703014311961        1.16399277564919
H            0.05430746158033       -3.95496556250920        1.39970579304106
H           -1.57590436720154       -3.93425133071746        0.85616917208361
H           -3.72508182829313        0.60804210446623       -1.21437107912504
H           -3.84748598309503       -1.10578924371923       -1.22755648236764
H           -4.15883390316395        1.11923548444297        0.95372676068077
H           -4.09754465780220        2.80661573059186        1.13889142337891
H           -2.03074723305754        4.16378392838316        0.54558609845177
H            1.54871115269946        3.21820667338556       -0.42184827406801
H            0.60360244781649        4.64642156377349        0.05212215773671
H            4.54132120366561        2.12992117459876       -0.98260134027466
H            5.16283875026428        0.59291784568923       -0.48612053099900
