24
 energy: -43.750232836338 gnorm: 0.000406283170 xtb: 6.6.1 (8d0f1dd)
N            4.48157926550666        0.84227492498825       -0.00373186879272
C            3.37016163317910        0.55237739801413       -0.00378223358641
C            1.99180361411182        0.20932977527745       -0.00280580932149
C            1.19927612970637        1.36058405201329       -0.00129886778358
C           -0.14486302386407        1.66117102121787       -0.00038598428313
C           -0.58038554327922        3.00790111125012        0.00048567679494
N           -1.90312940309955        3.12497859449513        0.00109632390338
C           -2.40553796283525        1.89068504382497        0.00079357560348
C           -1.40429298068547        0.90115263928512       -0.00011909004310
C           -1.69216760260946       -0.45187835397344       -0.00029082134418
N           -2.95044056499673       -0.89145117711250        0.00058584834404
C           -2.85692546713040       -2.22702765452597        0.00018354431683
N           -1.63861245898402       -2.73562191886175       -0.00096288866650
C           -0.80538537495499       -1.66527284631962       -0.00138664914970
C            0.53817612089443       -1.92599042945312       -0.00292535681135
C            1.74373085769690       -1.18969253407275       -0.00382516612079
N            2.84687109464123       -1.97278091175100       -0.00582347476846
H            1.81026093271108        2.26231316087764       -0.00092795504839
H            0.04816201253930        3.88034177662811        0.00057999835370
H           -3.46332035298327        1.71121271308436        0.00121277011634
H           -3.73385917486477       -2.84929576673597        0.00082056229468
H            0.70643746239250       -3.00012319324077       -0.00367367382029
H            2.75781883066687       -2.97408727371846       -0.00651849879411
H            3.76935650554092       -1.56836127449108       -0.00651013779320
