26
 energy: -47.197671439030 gnorm: 0.000952660083 xtb: 6.6.1 (8d0f1dd)
N           -4.44753336114115        0.47390466954798        0.09122568949663
C           -3.45335207806749       -0.09430954070110       -0.01249767134677
C           -2.27359790592562       -0.82679293169236       -0.14035329217243
C           -2.20145442922091       -2.16774158648810       -0.57949737131148
N           -0.97253157446807       -2.65736594866174       -0.62564922373152
C           -0.15750633907873       -1.67566185763534       -0.19260080599512
N            1.04675994188881       -1.92563242632312        0.16831623736913
C            2.19470407180431       -1.36003818965847        0.41704557598851
N            3.00189848187819       -2.02987940423766        1.26673610483345
C            2.72741257634431       -0.26147141479000       -0.30496360838032
C            2.09129662786278        0.91858173566118       -0.62943180133097
N            2.75564117893624        1.79477581349790       -1.41857180920449
C            0.87276243915901        1.43581443381965       -0.05574378723051
C            0.72582069094138        2.77622929459865        0.25404038061932
N           -0.50445983502229        3.07178286755908        0.74922927029731
C           -1.21256242755363        1.97704774485752        0.68316562806523
C           -0.43594612777051        0.85889353050403        0.22665447768270
C           -0.94205733423273       -0.40767856502401        0.03299194036767
H           -3.03954884626277       -2.77836514934985       -0.86856049522257
H            2.66639380016570       -2.87272969955295        1.69890674264094
H            3.92672756481784       -1.69840661847408        1.46827950383012
H            3.76972923282299       -0.34681248232720       -0.58700538636452
H            3.67159218935357        1.57648961696623       -1.76962615177485
H            2.36868030514682        2.70443863187864       -1.59381749939335
H            1.47085444929248        3.55130260832061        0.21115268823706
H           -2.23382831057008        1.94101016010577        1.01113342483017
