25
 energy: -42.682438292168 gnorm: 0.000856315109 xtb: 6.6.1 (8d0f1dd)
N            1.13292985967762        3.12883772086165       -1.09420871139889
C            0.84027220096412        2.15696653804985       -0.20092673420498
N           -0.30144830844176        2.30519277265105        0.46109692223219
C           -1.22316040735289        1.42762361309955        0.72145100843568
C           -1.41841248804733        0.14239424802681        0.22293633523879
C           -2.69222058405046       -0.47463336449146        0.16701217220946
N           -3.90037599823760        0.07853878029004        0.45694258506870
N           -2.63624069075710       -1.71804652788128       -0.35995059249665
C           -1.36156038533137       -1.97446497198580       -0.59055084553715
C           -0.49903486614316       -0.88980077969285       -0.27421807527556
C            0.88241314537123       -1.01888236676446       -0.20377794587899
C            1.60269143233882       -2.20611950497649       -0.26769898218881
C            2.90306481510532       -1.97864409502125        0.20112336752748
C            3.07987448695664       -0.64436514329218        0.53694875171646
C            1.90095591922526        0.03898990472690        0.21777873077333
N            1.82125987357459        1.32519925316948        0.08988729107551
H            0.50988065113280        3.91239233320133       -1.17921606882806
H            2.07004671612767        3.19743823083973       -1.45020644087972
H           -2.02529184216441        1.83704836525163        1.33438338287536
H           -3.93299850002081        0.83210962651179        1.12371959743893
H           -4.66767169916760       -0.57330649345195        0.47425046617691
H           -1.06835266218057       -2.92642090278590       -0.99047103988144
H            1.21176548739199       -3.16421829054517       -0.54973893171986
H            3.65625343639229       -2.74225121064434        0.29718624492474
H            3.98218870023606       -0.18142653594679        0.88464683569693
