35
 energy: -62.285674901287 gnorm: 0.000966864650 xtb: 6.6.1 (8d0f1dd)
N           -3.06588075079374        3.52415084960821       -1.24964120554571
C           -2.49228402183844        2.61909214568785       -0.82501673598586
C           -1.78916533971605        1.51090115009757       -0.31742568339779
C           -2.37976194588437        0.26287130582357       -0.55591121006728
N           -3.49414232231455        0.25158246877769       -1.32581467995996
C           -2.04516502518199       -0.99592854398123        0.02793933189110
C           -3.01969779696773       -1.93830434623640        0.34189392634936
C           -2.41798162555847       -3.14037211224920        0.74526969597199
C           -1.05403419893231       -3.01357789677482        0.59441599831640
N           -0.11529979040663       -3.97734964877067        0.87282014127378
C           -0.76152616192724       -1.66628334554240        0.15124885266680
C            0.50247083864898       -1.24389451547493       -0.21668650044644
C            1.53860761043948       -2.09478907226363       -0.64917672324119
C            2.69450837605647       -1.35559364307555       -0.82896940806573
N            3.88607454285828       -1.76766780065754       -1.29316597688695
C            2.43033806026527        0.00066310815231       -0.40410248276207
C            3.40218737702100        0.99800139483251       -0.46550865072167
N            4.25595410345765        1.75819173661597       -0.59928110301517
C            1.08927443203753        0.10914213336113       -0.06365301731964
C            0.57006121245373        1.25282239428976        0.59912545145354
C            1.53140039899758        1.93228179686066        1.37963551480288
N            2.26977186604543        2.46377209144928        2.08379601476360
C           -0.67885384258562        1.88027902906820        0.51270883424933
N           -0.83161263892454        3.04874387043173        1.18542183159583
H           -3.98373122384673       -0.61276570031448       -1.47041445538295
H           -3.90147861382984        1.11134600351550       -1.65454446636563
H           -4.08110722468621       -1.76073732538033        0.35816547070323
H           -2.93555072642377       -4.00832774133810        1.10916583819396
H            0.80988668807712       -3.63672243379117        1.08912974773512
H           -0.43839059214885       -4.71841430125402        1.47647391160010
H            1.40973630391430       -3.12064308202612       -0.93575775078054
H            3.99948534455064       -2.69874809619693       -1.65199400253777
H            4.62155854826658       -1.09565822202920       -1.43230003531580
H           -1.64478302639209        3.61734766524173        1.01744507064778
H           -0.03278959293139        3.47646193924397        1.62621964768377
