33
 energy: -58.843504896518 gnorm: 0.000630367792 xtb: 6.6.1 (8d0f1dd)
N            4.31184108771289       -0.48269617355972       -1.97967688245462
C            3.38845703649605       -0.20020969381228       -1.35853579496841
C            2.23196762685835        0.14817523491249       -0.61640511984153
C            1.99891641732898        1.50366052797058       -0.55656496008272
C            1.07744629418046        2.29211344080051        0.15553169427002
C            1.54528973122534        3.61090655475102        0.35542397968202
N            1.91903241702712        4.68458899075025        0.52793342451516
C           -0.23280325614305        2.05312455710848        0.61297344752893
N           -0.79213412147269        3.01646881862056        1.37918808149672
C           -1.11713965701540        1.00218685267361        0.21863402758800
C           -2.47121168787415        1.24566260400513        0.05697925338261
C           -3.14364007251968        0.03628781845584       -0.23935788045189
C           -4.49066732182328       -0.10427905068388       -0.57140105529910
N           -5.59627823584836       -0.24968936820343       -0.85412679629329
C           -2.21660853381136       -1.00480067909475       -0.16732011333273
N           -2.50131954519298       -2.32095516677720       -0.39277698392835
C           -0.91995413498850       -0.44314934364497        0.10677869491035
C            0.19010507662352       -1.23389353978413        0.35600104789571
C            0.12886626007381       -2.55934879681562        0.81343081428172
C            1.41335751029507       -3.09292679971374        0.83302497458773
N            1.78008866507775       -4.31228849933374        1.25951162298125
C            2.31231646946153       -2.12120846137202        0.28835350626698
C            1.62381343456104       -0.96582603837205        0.03498646878487
H            2.76158775320378        2.09732997312921       -1.05581558148075
H           -0.29923832631082        3.87706951528471        1.55487901499312
H           -1.75792232444193        2.94557920934236        1.64586831233318
H           -2.95622116697401        2.20553570657167        0.06006434875424
H           -1.73220247131078       -2.90743524491398       -0.67900232055105
H           -3.38268533105844       -2.49970634125764       -0.85097174986792
H           -0.74284124235399       -3.03390070906573        1.22062112500165
H            1.11118317247388       -4.91868540051194        1.70059236725056
H            2.75302088791845       -4.56180709820643        1.29016879816803
H            3.36299615682326       -2.27976012545236        0.13294893047938
