27
 energy: -46.916043851679 gnorm: 0.000619250195 xtb: 6.6.1 (8d0f1dd)
N           -4.41514384950420       -0.51412548594898       -0.94407078830649
C           -3.32318155932459       -0.55023629519572       -0.59303345099493
C           -1.96515592413245       -0.64352858713224       -0.21220709665879
C           -1.34569314987174       -1.85662693395248       -0.51672421107945
N           -0.27192798313357       -2.38535117227989       -0.01511729824501
C            0.88466340069438       -2.01540504695293        0.44849578793255
N            1.50612671513611       -2.87341362434345        1.28351015438863
C            1.62681056921079       -0.88576484849105       -0.02300986446127
C            2.97652337296363       -0.87698677713745       -0.30593588543072
C            3.37443284681991        0.42107127234651       -0.69462440123503
C            2.29730170478974        1.26619762141786       -0.57080229041989
N            2.27837515572256        2.60910362113519       -0.84120525156408
C            1.14777578199536        0.49209658874414       -0.12470936691891
C           -0.02039722730475        1.04336282176713        0.34888194495784
C           -0.17962011594914        2.38490075740473        0.78734929558117
C           -1.49427814294884        2.53212127452641        1.15099581491634
N           -2.23958858330366        1.44072614206248        0.85403886261098
C           -1.42703812652481        0.50615178483749        0.40752396843652
H           -1.91049509682032       -2.54027352983263       -1.14702403959661
H            1.05217635516681       -3.73103269726391        1.54571977555117
H            2.44981293718773       -2.69761621308221        1.57466386210239
H            3.62407458738768       -1.73594506085586       -0.29485432573972
H            4.36022659508588        0.69815939486332       -1.01826424463513
H            3.04413521828212        2.94953730234228       -1.40117881944441
H            1.37962298736692        3.01044497975078       -1.05902631977406
H            0.61362776612011        3.08194193451271        0.97190571471134
H           -1.95936769771269        3.38019709605765        1.62098126311553
