31
 energy: -59.417355096550 gnorm: 0.000386372591 xtb: 6.6.1 (8d0f1dd)
N            3.83861146104141        3.62700742200316       -0.07306444944693
C            2.90006955768692        2.97211484591278        0.04016951504421
C            1.76739899580035        2.14679177451552        0.15946343662548
C            0.74242688581238        2.62276211188827        0.99460538138615
N           -0.52110149956572        2.46421509835591        0.82994506996596
C           -1.39559676624347        1.68905856007842        0.28566369905159
N           -2.60098039046856        2.14194608032356       -0.06850899012036
C           -3.38296691320443        1.06427443474451       -0.21433034142440
N           -4.66481649575665        1.16828666893058       -0.55280368719259
C           -2.68021030665605       -0.16800512707055        0.01469159695552
C           -3.29266451822008       -1.41037291028501       -0.09561979280005
N           -3.87621419985119       -2.39788097448709       -0.19751149943423
C           -1.34699564928914        0.18962198696432        0.23787197488272
C           -0.21794679889205       -0.62106839628589        0.24824631719715
C           -0.31991779261825       -2.02148521016914        0.38829286027564
C            0.93123005593697       -2.58719869027413        0.21754319938985
C            1.29999655571532       -3.92693058280806        0.35995634306299
N            1.66861846430459       -5.00971591930294        0.47441098305236
C            1.85304258156999       -1.54865330621957       -0.11561323392789
N            3.18128206701736       -1.80045956494276       -0.38254706624951
C            1.17811616937185       -0.31689903566905       -0.09048901027542
C            1.84228382612171        0.88440571707866       -0.48533963668196
N            2.81617134977500        0.74538245713475       -1.40633724295400
H            1.01141450744316        3.33715100812519        1.76884893037123
H           -5.24549014373564        0.34874031596140       -0.61013876074806
H           -5.05250733065648        2.08161640371840       -0.71649609060590
H           -1.22013437305437       -2.55262092836770        0.63018326455828
H            3.84227259637212       -1.08356739402773       -0.11955172370327
H            3.47599174626740       -2.73105139244152       -0.11932407085880
H            3.39223543579134        1.53228425987256       -1.65791566672195
H            2.96025434658614       -0.13947267634881       -1.86233632277108
