23
 energy: -35.231671488187 gnorm: 0.000729652958 xtb: 6.6.1 (8d0f1dd)
C           -0.70026742276905       -2.69056531236699        0.00016456054629
C            0.69484849811620       -2.70034919688143       -0.00045164374028
C            1.68491584664399       -1.73961622386639       -0.00126021185599
C            1.72562747801534       -0.34580627366333       -0.00180507261166
C            2.93878271508481        0.34082412513169       -0.00253749811073
C            2.63483237396429        1.70614981002885       -0.00295775709193
N            1.33325068488761        1.94027965599694       -0.00257244142184
C            0.70117323234467        0.73985571419086       -0.00186161843311
C           -0.67767452590505        0.75100326820782       -0.00137241911927
C           -1.38124946868570        1.97699873723741       -0.00166290987394
C           -2.73612950378978        1.72623466750884       -0.00102675876616
C           -2.94228548824837        0.33879747209623       -0.00029794368176
C           -1.71670764970716       -0.32265365253532       -0.00047213232978
C           -1.67811710123060       -1.71362975620034        0.00015772332799
H           -1.11486434385935       -3.69373114449176        0.00078363924844
H            1.09552833962240       -3.70948178513465       -0.00022356758532
H            2.68643303051860       -2.16206541084340       -0.00152577964230
H            3.91980445801665       -0.09411071686575       -0.00273004303794
H            3.33174497483978        2.52664732758037       -0.00353208989751
H           -0.89428061508484        2.93181393187863       -0.00229114995246
H           -3.51513863527605        2.46779269876601       -0.00107497869155
H           -3.90197394275434       -0.14594616851704        0.00030121891925
H           -2.68231892404404       -2.13035471515723        0.00077257330157
