28
 energy: -52.225048131439 gnorm: 0.000834025925 xtb: 6.6.1 (8d0f1dd)
N            1.69570444191747       -4.26161067152007        1.21033568036865
C            1.37585372578813       -3.23457316436744        0.81161598749513
C            1.00251356857487       -1.95556571795421        0.32432262903577
C           -0.30109186736932       -1.94599753154179       -0.28321494182578
C           -1.23705512899755       -0.97679939766254       -0.43168619547238
C           -2.40606562331982       -1.39250923887729       -1.12596547328878
N           -3.30546177498077       -1.73550186295828       -1.74846078992746
C           -1.29407534142830        0.40639141581916        0.00011302812607
C           -2.48354462223596        1.02363975972467        0.31859237057946
C           -3.73479687850360        0.43027598590538        0.52533392204855
N           -4.77036448054553       -0.00451662824017        0.76397661116251
C           -2.25426141284970        2.45067191775445        0.49803351135223
C           -0.95966267407422        2.70523496581599        0.23373729219615
C           -0.27139740623624        1.44938865038843       -0.02860275668135
C            1.08456641920826        1.37882942110832       -0.18716153498338
C            1.89348004548632        2.57580802489360       -0.47153873328819
N            3.15018679231696        2.32135645509609       -0.53882453046113
C            3.29861638458175        0.96996729228643       -0.23811942262026
N            4.53916628255004        0.47068959948177       -0.20397729285395
C            2.06666258121745        0.33158684087468       -0.05312056992831
C            1.98601995788734       -1.01391471830571        0.39196089253277
H           -0.59999021647345       -2.92802449224714       -0.64070294130618
H           -3.02095057805093        3.14629029339054        0.78285651207069
H           -0.47632694340845        3.66043185167003        0.29401127734377
H            1.51384855697617        3.55600933253503       -0.68884396265092
H            4.71526684825330       -0.49118538447071        0.02405644326986
H            5.30754230956144        1.10505276682022       -0.33513036162849
H            2.91723712365444       -1.37822668841957        0.81930890013502
