30
 energy: -50.076372544373 gnorm: 0.000969469007 xtb: 6.6.1 (8d0f1dd)
N            3.77438319645894       -2.41419965118866       -1.09079799267449
C            2.77504807464315       -2.05849330371897       -0.64646030741188
C            1.54334945205380       -1.62809007950048       -0.11428306566993
C            0.56486005182403       -2.58773496212167       -0.01978314719106
N           -0.55186148234629       -2.60001819290529        0.68747133754540
C           -1.51851843605298       -1.78325256077305        0.89250636922146
C           -1.84932661105247       -0.57784247896557        0.23515694487407
C           -3.16869943298427       -0.12566396777998        0.08696068320126
N           -4.29906877451462       -0.79026318075792        0.45131843435958
C           -3.16331589944267        1.15730547148023       -0.51668394935603
C           -1.86143143646485        1.56280311767433       -0.66264401950701
N           -1.44647554853984        2.73425498616474       -1.23309097093355
C           -0.97184552977030        0.51383663304854       -0.16713442988755
C            0.36344629206421        0.72906583803949        0.09238928080413
C            0.93576819790281        2.02625991961721        0.25084450664157
C            2.27614676789885        1.89843581097596        0.52103166210065
N            3.17387059461913        2.88808066247129        0.76866505086908
C            2.62195719796206        0.50255616960482        0.44654727663732
C            1.49316033057113       -0.23017511995029        0.23125803594241
H            0.79539373097355       -3.56367461716245       -0.44286266715577
H           -2.24749083686331       -2.15217798008108        1.61525334101315
H           -5.17445909016471       -0.45717184526994        0.08657848859095
H           -4.23607377566127       -1.77516715056542        0.64130636310205
H           -4.03896715267947        1.70952947630778       -0.80536971874908
H           -0.50848422092148        2.74013543063658       -1.60307046678020
H           -2.13561229621822        3.21380530979458       -1.79112607778372
H            0.37500699247313        2.93776624663678        0.32671478380272
H            4.06298857104843        2.63039810995109        1.16128482650352
H            2.82280243209239        3.80165941666830        1.00074123597590
H            3.61937049119097        0.11539485556872        0.54958786891499
