26
 energy: -46.426079011783 gnorm: 0.000666177836 xtb: 6.6.1 (8d0f1dd)
N           -4.01776750043954       -1.32630925736539       -0.47463244914242
C           -2.89079087285713       -0.64911526665467       -0.21233067376582
N           -2.82340258120846        0.68561601534532       -0.45431566985408
C           -1.60888214388426        1.03808236326794       -0.05373758755198
N           -1.24347756692248        2.25478768411964        0.15257375322821
C           -0.20674113619245        3.00363580005854        0.31668555799724
C            1.09813776082427        2.88633401273722       -0.17237160528181
C            1.85367716300396        1.74399397314908       -0.37012737193343
C            1.64664344392539        0.39115235130011       -0.12265115707810
C            2.71222045240383       -0.54827309346540       -0.20834930823932
N            4.00740105563159       -0.30935411444070       -0.51076012247927
N            2.33228070966625       -1.82666109125418        0.00720054808938
C            1.02341203212177       -1.79566284501519        0.22246857429001
N            0.27939505501854       -2.86887291275499        0.47682696679866
C            0.48239311543848       -0.44541470783771        0.18765176644204
C           -0.86069279597201       -0.23490519951541        0.26910804193105
N           -1.78725654771290       -1.23592943294857        0.24282970399739
H           -4.12144865035915       -2.26046165085797       -0.12164050457906
H           -4.83033972191345       -0.79122380120399       -0.72396140943499
H           -0.43640027156488        3.92996684920108        0.84270899524822
H            1.63981169161666        3.82098127405588       -0.25284595124909
H            2.87139743880501        1.96256055885984       -0.68261272017812
H            4.63750125903305       -1.08221319688723       -0.38154123381222
H            4.38029564132835        0.61997828315497       -0.43516792703763
H            0.67922846292327       -3.78270893968229        0.35340461026531
H           -0.72717384421388       -2.69345032226594        0.47176098742966
