32
 energy: -57.560209181274 gnorm: 0.000795155392 xtb: 6.6.1 (8d0f1dd)
N            3.86505708495420        2.53713172150941        0.15452586544730
C            2.84995965455360        1.99271839754628        0.14801382974285
C            1.56956755547511        1.41419952896882        0.13784484291307
C            0.49585903204109        2.31389971234583       -0.15074403650404
N            0.81848260462366        3.43882568215787       -0.83594768687390
N           -0.72787585939234        2.25957292894704        0.28490358286853
C           -1.66859860706717        1.39881290312251        0.57032623898626
N           -2.67889433182141        1.93443220181115        1.33551971606008
C           -1.86787830786453        0.11368527771645        0.02813719530150
C           -3.13565898846656       -0.46506115173491       -0.18466802047409
N           -4.35347968477979        0.14712575631466       -0.01302234048149
C           -2.98437883925421       -1.79724695699015       -0.60654320641516
C           -1.63881203341453       -2.10604769068486       -0.61579868223505
N           -1.05908153748505       -3.26846828253761       -0.96863813042499
C           -0.87827772630400       -0.92316832843211       -0.23972333653551
C            0.47623417452132       -0.99380559393303       -0.01223221621657
N            1.12133394511560       -2.19690519031037       -0.02122461121164
C            2.38122301573660       -1.92726233904366        0.30854045915703
N            3.32689787713947       -2.87377175316435        0.42083461370284
N            2.67872657228137       -0.62461523625760        0.48806298030161
C            1.53499777760336        0.02558451044152        0.27695892016485
H            1.78789852477922        3.66008673432276       -0.99074621414610
H            0.12900573122159        4.16550673493761       -0.91861598202149
H           -2.44883875768875        2.79839399444328        1.80113377525843
H           -3.25059034806202        1.28687891138319        1.85273661389972
H           -5.11888555671152       -0.29338555180708       -0.50043219893058
H           -4.35011129034804        1.15474180102672       -0.06586031474718
H           -3.78970765689772       -2.46167035681334       -0.86095363913412
H           -1.62646996897326       -4.09488493666308       -1.03834727462631
H           -0.07080243791251       -3.32017776596443       -0.71682169873761
H            3.05863682848974       -3.84056883630915        0.41985825403798
H            4.21753206250785       -2.59718344215143        0.79197519077457
