32
 energy: -59.918642247842 gnorm: 0.000887340552 xtb: 6.6.1 (8d0f1dd)
N           -5.76137441947168       -0.20798506865726       -1.36333574752621
C           -4.68788103488368       -0.09927954913129       -0.97099218196519
C           -3.38624295479913        0.06767712241924       -0.48255038114436
C           -2.91626481957129        1.24751700345328        0.17107437082213
C           -1.57150715859663        1.10890980341435        0.42992940454159
C           -0.83903452731606        2.07798827370931        1.19470159270041
N           -1.57673786394995        2.72939593576602        2.12298733116969
C            0.44843616501503        2.54205322881870        0.98710703395269
C            1.48531469957542        2.18281548610502        0.11035888327130
N            2.32229404282779        3.19079295060483       -0.23284495482641
C            1.87462389263114        0.88278917946348       -0.31709078284857
C            3.03457819733845        0.86440295183103       -1.13117141148973
N            3.90640704038642        0.91227733977145       -1.87797169404100
C            1.40042697260557       -0.39287574837925        0.02139502194582
C            2.24827114825261       -1.52287222651468        0.02769631980958
C            3.64893758830189       -1.51116508074645        0.04229093185166
N            4.79481529536202       -1.53866546269451        0.11365636929812
C            1.47448011451936       -2.67971327559256        0.20028220794323
C            0.12670548110614       -2.32120749987055        0.21726877730919
C           -0.91955020617871       -3.22782927605832        0.42646729132785
N           -1.74875432287832       -3.99977008606286        0.61613823248026
C            0.01831413121107       -0.90800250530751        0.14217776125057
C           -1.18356821079682       -0.23363628693889       -0.01130655719813
C           -2.35028190019297       -0.84229236429833       -0.54081219536564
H           -3.52521859144965        2.11411354468602        0.35521891265592
H           -2.51532108793129        2.43023384462986        2.31779829041236
H           -1.18241364548740        3.47410492727554        2.66977324521091
H            0.65798409735729        3.46600835725745        1.51931132130467
H            2.14441493865735        4.12849769087017        0.07875988292605
H            3.15967672587929        3.00722257417261       -0.76063588143496
H            1.86145099445383       -3.67549714793932        0.31856580852439
H           -2.39611111367705       -1.81897165985667       -0.98116008266810
