29
 energy: -46.350784496206 gnorm: 0.000444956488 xtb: 6.6.1 (8d0f1dd)
N            5.19193651482603       -0.55365709123929       -0.48202608956039
C            4.05536218218853       -0.40048628370493       -0.38042200866823
C            2.68865407068944       -0.17431061349214       -0.22816953400871
C            1.65097928724605       -1.13994933492965       -0.36323109737352
C            0.42712601985711       -0.56106963776830       -0.11626507240790
C           -0.75432022860875       -1.33993475862420        0.01130917811720
C           -0.72825609040891       -2.71244947749387        0.07971896677084
C           -2.04634770613109       -3.22533194682452        0.24089872890753
C           -2.92037255602571       -2.18735485411076        0.26519647342416
C           -2.19049642971631       -0.95332252588538        0.11580949447742
C           -2.90083776722196        0.19817138242323        0.02272856802911
C           -2.62332262350098        1.59241698286171       -0.12591838159831
N           -3.75853807350942        2.33755803079544       -0.32163829966825
C           -1.45564996013461        2.31306161428197        0.01328161182731
C           -0.10352948744785        1.99909123772685        0.19644765269932
C            0.67991678220694        0.87990676172075        0.12609396658708
C            2.11346848262264        1.04072443756875        0.12561956402348
N            2.80676535743408        2.21464626064471        0.29761113380835
H            1.83864916700566       -2.16596399426856       -0.61261795109490
H            0.14665231279172       -3.33231261579579        0.04950452127121
H           -2.28639289776052       -4.26977205990363        0.33304956103111
H           -3.98763472265536       -2.24093825184207        0.37626664652172
H           -3.97431364288291        0.02412545425997        0.07027828237276
H           -3.67132677988409        3.31045143564007       -0.55861727581733
H           -4.61304152142747        1.87951297945989       -0.58512501404082
H           -1.62502222801118        3.38548979135824       -0.03378277653844
H            0.48114201054018        2.90409420658262        0.33593862688616
H            2.42863501880155        2.88709416686497        0.94614193358468
H            3.80758909211652        2.10183306969349        0.35975528013699
