25
 energy: -42.676894459799 gnorm: 0.000637194727 xtb: 6.6.1 (8d0f1dd)
N            3.28280851448190        1.34674493378294        1.20599935778518
C            2.32253889673566        0.98196897338886        0.32817277202554
C            2.28759410066950       -0.42158529302434       -0.00199310841468
C            1.22016282577680       -1.23887023189473       -0.17886938910383
N            1.47939169239293       -2.57409121093406       -0.33225208988372
C            0.32003579335142       -3.19150758251240       -0.25031487938144
C           -0.76818244957913       -2.32675011953266       -0.04006406515777
C           -0.26605296225437       -1.03261672782100       -0.03606016395288
C           -1.01691372149519        0.14667265468100        0.03221555313761
C           -2.41904415833943        0.19828433200272        0.24225624821881
N           -3.23713857942431       -0.77530565459172        0.73540452107147
N           -2.95457427037604        1.38507553790173       -0.12173742976701
C           -1.96688391477840        2.12095500738889       -0.60130939385099
C           -0.70996609516392        1.48508531282546       -0.49042566960298
C            0.48117060222747        2.11957027192875       -0.77224538097637
N            1.65297201607255        1.94185095492405       -0.22027328510546
H            3.36737029449857        2.31219413493162        1.47314881886188
H            3.89651722054128        0.66259957874512        1.60925609965497
H            3.24510296022976       -0.92843448448647        0.00928716814362
H            0.26916773188261       -4.26306499503046       -0.35023378014806
H           -1.79562826193088       -2.62796499365864       -0.01721995232741
H           -2.83329675606743       -1.42720867372526        1.38886871492789
H           -4.16465025900824       -0.44682143516682        0.95710719023437
H           -2.14444612493219        3.12466012250301       -0.94274170408889
H            0.43067105168914        3.01448657477493       -1.38829414849937
