32
 energy: -59.120102996266 gnorm: 0.000938235161 xtb: 6.6.1 (8d0f1dd)
N            4.86815912752604       -0.00061269243068       -0.89655359247745
C            3.84749919885885       -0.49875076055307       -0.71749929803145
C            2.62199693560635       -1.13155741765194       -0.50496793395015
C            2.34873036412293       -2.47099602147707       -0.72756014711192
N            1.06698063908668       -2.77549233494978       -0.45281617417516
C            0.42382626227637       -1.65547180116587       -0.17050598490718
C           -0.89408041901630       -1.75040318294424        0.34703193046936
C           -1.16304670020767       -3.01380508296915        0.92597488285374
N           -1.42682273155477       -4.00886212384642        1.43502516534544
C           -1.98271438764442       -0.88414941917285        0.25077949868418
N           -3.16487954078654       -1.30117290969171        0.76194004506935
C           -2.04549450375562        0.37257507095038       -0.46098719843567
C           -3.26298110388750        0.54898263841586       -1.14821863336784
N           -4.25411247983569        0.70045942303603       -1.71414605895203
C           -1.18780584923200        1.46571895139903       -0.45777578604786
N           -1.60076888126995        2.58955011457810       -1.10604133611682
C            0.03538021168073        1.62598621329280        0.28175612254320
C            0.42705802077195        2.83405542161588        0.85307203175928
N           -0.30711983298771        3.97044472141937        1.01589347911738
C            1.80292530696084        2.72891317826918        1.27089651533121
C            2.27540553419185        1.51904759334383        0.89682567524932
C            1.19847784918166        0.76109107820666        0.29607977900737
C            1.36651850403474       -0.51596037171318       -0.17866134269362
H            3.02547952875420       -3.22973251343892       -1.07526390048239
H           -4.00810312719421       -0.78931353847362        0.56075931838557
H           -3.24848896496246       -2.24503797922115        1.10668167783675
H           -0.92634142309667        3.31191081219654       -1.29151745409651
H           -2.41070315934827        2.53995108360073       -1.70397856595284
H            0.04662846603672        4.64783188294921        1.67152231478700
H           -1.30990972059751        3.90343795262853        0.94737391456716
H            2.33618966421780        3.50567449670822        1.78662297778347
H            3.25989197816936        1.12933356718952        1.06586769950913
