30
 energy: -50.880601857431 gnorm: 0.000899256877 xtb: 6.6.1 (8d0f1dd)
N            1.68750102468973       -3.76811591530343        1.15282230111986
C            1.16019104425248       -2.82236990557114        0.77176662072582
C            0.49157970225543       -1.65154863040741        0.32759088795740
C           -0.87827452910841       -1.80828824780806        0.27220915465975
C           -1.93308436380817       -1.02260689439999       -0.21704629110013
C           -3.07729250268774       -1.80493073801479       -0.50215692132443
N           -4.00944313346135       -2.43520301210173       -0.73882595358363
C           -2.11309906460588        0.36505934291312       -0.39504631157679
N           -3.24436604932630        0.74432692673101       -1.03584356897230
C           -1.34260786880040        1.42983365369952        0.15302799488961
C           -1.95022451921709        2.61964567921727        0.54531693517104
C           -0.96571404405353        3.54357002062543        0.93585178734412
C            0.26594974213591        2.98340121353901        0.71030408943064
C            0.10080854157102        1.64634709938398        0.25640976977196
C            1.19575079222603        0.86782823172005       -0.10180033794098
C            2.44848721142100        1.40821502445537       -0.40490844899680
C            3.36521293585224        0.37445178584948       -0.59060756244975
N            4.65427397109819        0.49093715226799       -0.94836108642459
C            2.70113433843827       -0.86195433558234       -0.33999368256767
C            1.37775943518271       -0.61536679963096       -0.07070425459621
H           -1.20394304225942       -2.80815009658719        0.55249883723145
H           -3.47547749800434        1.71933850408959       -1.09306726687794
H           -3.93916015957023        0.06137944923086       -1.29023109710750
H           -3.00897553444642        2.79321267413618        0.62982615961609
H           -1.15923892279277        4.51949516657538        1.34231821960211
H            1.21330673303679        3.43914250434352        0.92422104547346
H            2.66294715046725        2.45102417195549       -0.53317492614868
H            5.22895639305015       -0.32696435196611       -1.04485935394100
H            5.06326938906308        1.39613374981047       -1.09599251313587
H            3.17185435000091       -1.82679683676914       -0.37301933924903
