32
 energy: -58.349970614421 gnorm: 0.000328546839 xtb: 6.6.1 (8d0f1dd)
N           -4.47656100693954       -1.67744706884586        0.96313492155538
C           -3.51921262667970       -1.10568355288323        0.67627026532526
C           -2.39936483974403       -0.34977447519279        0.34461301618180
C           -1.12090100409326       -0.82184193175659        0.01191833075317
N           -0.89245481746906       -2.06902903643068       -0.28181766288708
C            0.19359711763547       -2.79347170569999       -0.40888499639762
N            0.14901028472182       -3.77576017706831       -1.33880679824581
N            1.23636780624597       -2.82266490429029        0.41805517500285
C            1.97679125254826       -1.82769897340405        0.81235736353743
C            2.09163271995862       -0.52584866780405        0.33219260728683
C            3.28693244523236        0.21885613036617        0.48324946637237
N            4.42996985020312       -0.19907408715268        1.08483608808698
C            3.17868730137295        1.43431944260095       -0.21684125791805
C            1.90660956321343        1.53442496073739       -0.74363427959106
N            1.50710709402955        2.46118199226403       -1.64551319335419
C            1.13146768518299        0.37464257086933       -0.33927484380957
C           -0.24162761886077        0.36708126548761       -0.23658403472585
C           -1.11556012866867        1.50073481213102       -0.16270169897339
C           -0.83509293782548        2.85867915376503       -0.19682106044760
N           -0.70332055386446        4.00662780515437       -0.20467873303165
C           -2.39617775022920        1.06679942212026        0.24230985173501
N           -3.44812168285726        1.85888747777606        0.49121894157697
H           -0.72992857689103       -3.96037747269550       -1.79069869745259
H            0.83293632209170       -4.51015088975211       -1.28483921206085
H            2.72874652189774       -2.14355788115919        1.53419448653992
H            4.38951893495054       -0.97794741760595        1.71965099523243
H            5.13468333384498        0.49437439938281        1.26956984247615
H            3.96947764731833        2.15056496864209       -0.34112564021505
H            0.52993695711646        2.52696550201764       -1.87544195960594
H            2.01846474133512        3.32751686666111       -1.68031814048258
H           -3.35396156121799        2.85816266711934        0.42733676925647
H           -4.30039718536059        1.46053555063480        0.84580473167645
