28
 energy: -47.432547873063 gnorm: 0.000535323603 xtb: 6.6.1 (8d0f1dd)
N            5.40720009014306        0.88266574876457       -1.05067200772329
C            4.32136227447756        0.63743970465717       -0.76760512528622
C            3.00531981515951        0.32205811307505       -0.40973733335000
C            2.52446311101866       -0.98254528815369       -0.15910264478429
C            1.15806040564064       -0.92425422058473        0.08875653287897
C            0.43077925776577       -2.09293035600650        0.43512920464037
N            1.16339191977320       -3.09282288539550        0.98357113660084
C           -0.89712265604202       -2.44094910445851        0.12969529475169
C           -2.01532431267472       -1.76774650517501       -0.30100655151550
C           -2.42295574788239       -0.42507074889079       -0.28907660594808
C           -3.77338996338689       -0.29225273742884       -0.71678926827914
N           -4.85656260158153       -0.23143778696035       -1.08949789385641
C           -1.84292054699234        0.76493013110522        0.15608523264005
C           -2.60644218749969        1.90840087743799        0.39695632298408
C           -1.76241151149692        2.94960880765681        0.77682708254822
C           -0.44179942519767        2.51510082442553        0.71358752747385
C           -0.40934638481076        1.16824281775142        0.34388204560518
C            0.77725973994903        0.49868078231998        0.04542448149028
C            1.95713921185351        1.21647193943248       -0.23968501601988
H            3.12868455355911       -1.86711869009981       -0.25129259979539
H            0.75570478391696       -3.99536535909973        1.15296424682639
H            2.12800810953536       -2.94627030639969        1.21881916180653
H           -1.05957459334592       -3.51245314410858        0.21063074783255
H           -2.81495615621094       -2.43173536408984       -0.61792587377640
H           -3.67780208172648        1.95729141578859        0.34129020517663
H           -2.08191475781756        3.93253003615751        1.07375274761174
H            0.41534917827511        3.11092758660582        0.96050101064878
H            2.02275006779764        2.27719104587405       -0.38165513168113
