33
 energy: -64.440807338519 gnorm: 0.000669649890 xtb: 6.6.1 (8d0f1dd)
N            1.10601551066951       -5.39308464151911       -0.87964071139295
C            0.89052011174517       -4.29527478806088       -0.62918673097663
C            0.62054593942513       -2.93216291854054       -0.33466538272872
C           -0.67319482636363       -2.53562260184062       -0.68887542546033
C           -1.45315781665459       -1.44141205137036       -0.37163635330666
C           -2.84391011228811       -1.52796638298751       -0.50697337171908
C           -3.44745598641325       -0.39045622719680        0.03523424254906
C           -4.81940161782775       -0.16161577155935        0.18627686534646
N           -5.94014838678341        0.04852208271110        0.32233135676737
C           -2.43573416049470        0.51371219093409        0.43726903208247
N           -2.67665970909044        1.62428411192933        1.15819776806398
C           -1.16578198493177       -0.06329718957606        0.12215186290443
C           -0.00374050007998        0.67211260858066       -0.03710580252181
C            0.01887436254381        2.07235050220682       -0.30729700570410
C           -1.04077572665615        2.90385402777038       -0.66891634425254
N           -1.86354516036643        3.64606926247086       -0.97927827443692
C            1.35224608386791        2.50789813391995       -0.39949720519996
N            1.78258122023025        3.72750061783852       -0.71939309418108
C            2.19720440288571        1.38943230267310       -0.09650190008828
C            3.58978867845159        1.50971349116482       -0.13614933132601
N            4.71238080077001        1.72614925583402       -0.25059562898254
C            1.41084063077938        0.25362131381268        0.09064665887181
C            1.98700385807991       -0.96058935618567        0.54240233211509
C            3.19920490419649       -0.79326186067848        1.26508586721532
N            4.12978069534484       -0.69878944362052        1.92848812553796
C            1.66266015068509       -2.29315743217720        0.34316278498548
H           -1.23614233846703       -3.32595584604472       -1.17858175892778
H           -3.37349883436145       -2.37775078125850       -0.89599694842117
H           -3.62240528618121        1.96445757776176        1.21420669943238
H           -1.93893199370257        2.26884440315510        1.37956362101976
H            1.12774629279757        4.45240160618591       -0.96349094774062
H            2.77083279284304        3.90682208198512       -0.79633780891539
H            2.42308721584714       -2.97882326771787        0.70868910019037
