31
 energy: -49.794670380759 gnorm: 0.000392010993 xtb: 6.6.1 (8d0f1dd)
N            2.93041036442329        2.22528631139781       -0.96585926012294
C            2.42639588079218        1.26662135331413       -0.56673485247017
C            1.90547723596843        0.06594468731196       -0.10354701369151
C            2.71951638077256       -1.10450287375969        0.01767139392468
N            4.06009185724495       -1.11765902543117       -0.16251955436932
C            1.90180481256844       -2.16129244457089        0.38717485728622
C            0.56270758578147       -1.73666834971568        0.41339846027859
C           -0.44691492059230       -2.61606612094323        0.76375502380378
C           -1.82569605372636       -2.63617301983162        0.55791675967238
C           -2.70175992003937       -1.82817028861157       -0.12257396298501
C           -2.66506672468979       -0.50471862594470       -0.62353438825813
N           -3.68174114100759       -0.21364704637906       -1.48399658647286
C           -1.86365564110388        0.57207457244264       -0.21667379773544
C           -2.34252248934299        1.89018332795844       -0.24579167677139
C           -1.40660502489550        2.74600466856355        0.31672055213462
C           -0.25392793716208        2.01899513550284        0.61641135691594
N            0.78640185161919        2.53255819194571        1.35625964853058
C           -0.46978936503197        0.65582690363239        0.27303376890334
C            0.56238931021233       -0.27731492831414        0.14823974581691
H            4.53610212754788       -2.00023400093266       -0.22955340422794
H            4.49442045198002       -0.31650328001233       -0.58980043171183
H            2.22888077974277       -3.17028173695829        0.55824805413649
H           -0.06558221586253       -3.54370759239142        1.18014472325712
H           -2.28437671836425       -3.55713137262886        0.90505986712254
H           -3.66556563807207       -2.29728817059408       -0.30278444780827
H           -3.80077803843624        0.72611682216404       -1.81391072577807
H           -4.43560116216176       -0.86475326168736       -1.61550993011048
H           -3.33184606057861        2.19924443651169       -0.53491607008147
H           -1.54258276819062        3.79602382599905        0.50071178836528
H            1.62628392250564        1.97955309920452        1.40377715660936
H            0.96150144639870        3.51616549105819        1.22693467033695
