31
 energy: -55.407655517781 gnorm: 0.000795847922 xtb: 6.6.1 (8d0f1dd)
N           -4.79796329234425       -0.87974515930402       -1.47616777360052
C           -3.75605532978688       -0.74858784014977       -1.00957863463399
C           -2.45959531644318       -0.58713637833706       -0.46080189987814
C           -1.71086088021908       -1.74516772867536       -0.50941789992574
C           -0.46289588316255       -2.12990139514475       -0.02317467866939
C           -0.16716602739913       -3.48459203436195        0.14754563780626
C            1.13949342300218       -3.62153161793384        0.63309965717243
C            1.72037920219362       -2.37344025468797        0.68462053842385
C            0.77477791487136       -1.39442497622170        0.28258553873438
C            1.12576186265539       -0.07820853588999        0.02900578777806
C            2.46484262469833        0.33990959086622       -0.14790013171397
C            3.62919290172064       -0.41539915546964       -0.27574391573969
N            4.65305004460617       -0.92448049388605       -0.41341451917413
C            2.49012615021252        1.74484207717193       -0.32561241650918
N            3.58129583767984        2.47609096400438       -0.57453709589579
C            1.16895508508386        2.22403278520709       -0.20034076094744
C            0.30262799374715        1.16417313601122       -0.00881047926455
C           -1.05763244436831        1.40874580747449        0.31799948974490
C           -1.24591857300068        2.72405671246885        0.81094305075896
N           -1.41611306695504        3.77777902481881        1.23860585924695
C           -2.25188948929966        0.69212199053660        0.15812289768850
N           -3.39354774779766        1.30176157248374        0.56741615051728
H           -2.26516486373834       -2.58052206060209       -0.93190595678649
H           -0.85831143829597       -4.28928563558036       -0.02652831393034
H            1.60960656680409       -4.54737493676493        0.90882239309012
H            2.71992002660022       -2.16188306629857        1.01097023624181
H            3.51374895315932        3.47065258680528       -0.70025181480164
H            4.47800057283183        2.02634821537069       -0.65653356718981
H            0.89176925082187        3.25957871653551       -0.26393704336368
H           -3.37124082566985        2.25252764614308        0.89718232360261
H           -4.28630029130587        0.88252944291029        0.36774447831857
