28
 energy: -51.463570340346 gnorm: 0.000560842065 xtb: 6.6.1 (8d0f1dd)
N           -5.71709953388469        1.19354667846946        0.52200502040684
C           -4.65479632891809        0.78718280016614        0.36292696232168
C           -3.36111557724575        0.28488694541055        0.17200793413037
C           -3.04600572525005       -0.99861966287628       -0.30947107153495
C           -1.65862965857233       -1.14729843287304       -0.31848504606226
C           -1.04572947884450       -2.33084207015616       -0.74749631729463
N            0.07684010714424       -2.86690558064850       -0.40648236316546
C            1.21749725514033       -2.52479830612565        0.13675127751901
N            1.83641462598915       -3.50786879544912        0.83041919047210
C            1.96142345576715       -1.33308639092000       -0.07447041585505
C            1.54051868677757       -0.03269581700857       -0.17944808820992
C            2.45187425350170        1.04987072728324       -0.26391515097110
C            3.82608398735831        0.98666963193905       -0.44995696703239
N            4.96808016689520        0.95194800703463       -0.59511807985751
C            1.69442853984802        2.22352240728935       -0.05323943967915
N            2.14483992081420        3.48005120723117       -0.02733352737841
N            0.38686883613509        1.94982447867150        0.13662418736437
C            0.21541289056541        0.63453836152780        0.03463063128700
C           -1.08594390863254        0.12680492458080        0.11704283601922
C           -2.16984565922450        0.97584332800768        0.39989101073975
H           -3.75838364464081       -1.75562731428033       -0.58199886687687
H           -1.65939506648720       -2.98601753981201       -1.36419207479240
H            2.77664072415203       -3.38970001499686        1.16105040955584
H            1.38458606051029       -4.40012295866555        0.92743750981524
H            3.03877018400424       -1.46501309234807       -0.05745628013279
H            1.49036916764163        4.22598494836876        0.13014748591364
H            3.11453443138835        3.68041950846877       -0.19749407369619
H           -2.07410256843249        1.99401947391173        0.72231952179374
