26
 energy: -48.001160529090 gnorm: 0.000948565561 xtb: 6.6.1 (8d0f1dd)
N            4.57421552514219        0.44541405515703       -0.85280398582248
C            3.48012845741554        0.69751280563031       -0.60437119845429
C            2.14352288057484        0.95567910093474       -0.29974797887539
C            1.57910501826763        2.15167108799161        0.04934137082869
C            0.19064439267004        1.95763867968241        0.31515083262802
C           -0.60756370728325        3.03905156967454        0.70244448209503
N           -1.17419418674205        3.97915934486060        1.04408355608848
C           -0.15455286630293        0.61505568968378        0.11859256172165
C           -1.47097345579480        0.12202933554484        0.04786459655837
C           -2.61871031716124        0.92650592829910        0.14257201980182
N           -3.73537414280950        0.29151414978525       -0.23785915227612
C           -3.38057617349550       -0.91666781605549       -0.63621984402619
C           -1.99259573225376       -1.15095782289315       -0.46827110703722
C           -1.42059907997171       -2.38497728201685       -0.69791280110560
N           -0.38041620416580       -2.91757009725014       -0.11374244637937
C            0.73379370116271       -2.51485855521321        0.38944005375304
N            1.32030291422109       -3.28636869812835        1.32087172186244
C            1.51627811433372       -1.37131190594795       -0.05940015698428
C            1.12793702633521       -0.08484236318035       -0.16372211117782
H            2.08063005444449        3.10092826628099        0.10977797072746
H           -2.67225888771078        1.95095388317289        0.45566273330193
H           -4.10931113842183       -1.62892322970625       -0.97756331914085
H           -1.98822835792196       -3.09226627100760       -1.29742430985008
H            0.83598050469827       -4.09616475501017        1.66949450388889
H            2.23982359024478       -3.07412206494864        1.66545345691895
H            2.57308925732403       -1.57540272984598       -0.20028478474644
