25
 energy: -46.704615040204 gnorm: 0.000619748697 xtb: 6.6.1 (8d0f1dd)
N            1.05936353906540        3.07325789784871        1.17545552991139
C            0.85041866879350        2.09909725969557        0.26374715798100
N            1.90588970549679        1.37644456308658       -0.05483145625137
C            2.07273913318134        0.10703337890420       -0.23344685479779
N            3.23800456335417       -0.44333265683305       -0.58264555280594
C            3.06883817437317       -1.74701922999495       -0.34754021751959
N            1.88211458945777       -2.15214671283901        0.09016824573301
C            1.13157316683318       -1.03520096916892        0.12391317314000
C           -0.23397203472288       -1.04281723706756        0.28025321118475
C           -0.95683354569185       -2.22645729692355        0.66332625729663
N           -2.24860381603171       -2.05428656243092        0.64531247385727
C           -2.46745022755944       -0.77762932766663        0.19068256259108
N           -3.75619414965301       -0.35839022613355        0.01112560229331
C           -1.27722928700024       -0.08378838750108       -0.03492393509026
C           -1.17949514026816        1.20821677413695       -0.64742067054168
N           -2.19728112239895        1.58004171556298       -1.46460346443450
N           -0.30459176428622        2.13390844894597       -0.38495019489564
H            1.99819392811500        3.22945441987598        1.49946317565393
H            0.36950509875740        3.79449273682094        1.28845412538497
H            3.86876936316756       -2.44772063095465       -0.51301295819881
H           -0.50282719468592       -3.14790867996914        0.97243506298977
H           -4.43390223590987       -0.96287425282734        0.45056051578068
H           -3.93381325757185        0.62999390999388        0.10326727662794
H           -2.78405408022207        0.86502970056596       -1.85913237535195
H           -2.07611126969321        2.43609070357276       -1.98040969303865
