28
 energy: -50.651826456957 gnorm: 0.000603255468 xtb: 6.6.1 (8d0f1dd)
N           -3.50260828782798        2.25804946947397        0.53540391493118
C           -2.48385877689654        1.78107647820753        0.29804891812383
C           -1.19683387080728        1.24729734302476        0.03631651444386
C           -0.16085900397325        2.21451885610706       -0.10433916076423
N           -0.56509157640403        3.49730776484869        0.09659093920607
C            1.16459274065484        2.09170185951992       -0.53095979022096
C            2.13645050320456        1.09612226351662       -0.58404071885497
N            3.30849773355526        1.47210843612985       -1.15405837891702
C            2.14702475366141       -0.22090452177399       -0.04455249448098
C            3.31818604271884       -0.87295644438199        0.34377233745625
N            3.10239038312747       -2.13887170655901        0.75033234485007
C            1.81903768538828       -2.37572392342607        0.57576732684417
C            1.11760055213256       -1.22714742690556        0.11933638695512
C           -0.25047770537757       -1.24431683762106       -0.09460069970519
N           -0.92854997975293       -2.38857879882827       -0.13992858563885
C           -2.22422984224520       -2.02986926296223       -0.22285155944459
N           -3.20444333818520       -2.92405234166142       -0.32429330657175
N           -2.46428946439045       -0.70650787788466       -0.19213221917401
C           -1.25868931415538       -0.13491375386060       -0.12953393890574
H            0.07066082895266        4.26146108387965       -0.04210303365941
H           -1.52850264597578        3.69964457735575        0.30360307243523
H            1.56650242447450        3.05565696487376       -0.83815000487998
H            4.07364437876222        0.82405677251496       -1.19031835651189
H            3.46019266175507        2.41990488741840       -1.45001441653205
H            4.31128022252677       -0.46428203098645        0.42357779061574
H            1.37383781168487       -3.32176156869791        0.81545289815116
H           -2.97948854285913       -3.90233883061792       -0.32120605628057
H           -4.15551021385012       -2.60407955480380       -0.35765357906906
