27
 energy: -46.908787571569 gnorm: 0.000806046722 xtb: 6.6.1 (8d0f1dd)
N           -4.77708260635324        0.91441283720679       -0.12611856287714
C           -3.66215133510996        0.63424088274387       -0.06335152726870
C           -2.31815251706569        0.28089374162605        0.01071357506870
C           -1.82603726107712       -1.04617247773324        0.27536032412615
N           -2.66579546139350       -2.06707300011506        0.55017693358140
C           -0.43083412449215       -1.06609445486886        0.17333756955839
C            0.27492179156093       -2.26793467522704        0.47202733004828
C            1.48469949334321       -2.76077276504521        0.10699134093564
C            2.43904386178464       -2.10871863900098       -0.73544796255693
N            2.82734492562870       -0.90474857422673       -0.69106639341650
C            2.55733765202058        0.19173389350097       -0.01191892442948
N            3.48824354650497        0.95593490308848        0.50435120954550
C            2.88917699676002        2.15462116753966        0.78628210310336
C            1.57297622814229        2.21274811497219        0.42286356768372
C            1.22815383368806        0.89709956576102       -0.01254382349453
C           -0.00883145888232        0.31246919084829       -0.08036964612430
C           -1.22881747453417        1.10722659537511       -0.19832900950910
N           -1.27977486543591        2.41740473627845       -0.51803695891823
H           -3.65623693123701       -1.89983197191968        0.54812024843117
H           -2.33489729656390       -3.01099379055483        0.62545000102498
H           -0.34545406874743       -2.98179164178036        1.00802075423078
H            1.69263511818525       -3.79892855497027        0.33079003418216
H            2.91234308288669       -2.72077529196537       -1.50163462143329
H            3.47373574653643        2.92987870648422        1.24936659895533
H            0.91446689537514        3.03938181982143        0.60029974123397
H           -0.46452764507260        2.85527455083537       -0.91101263956163
H           -2.17932453045292        2.81590266902594       -0.73170748321915
