27
 energy: -47.732777490822 gnorm: 0.000864069287 xtb: 6.6.1 (8d0f1dd)
N            4.37960901156342       -2.85305407399716        0.01509837276086
C            3.44992448301190       -2.18165949782285        0.01256227229425
C            2.29873199251691       -1.34687492227919        0.00863049374245
C            1.10365233978841       -2.08917799848128        0.00798216766481
C           -0.23410532018977       -1.78286367898724        0.00515950295019
C           -0.99083319141271       -0.60565465474830        0.00171362309881
C           -2.38827478581416       -0.66547578364723       -0.00044896309474
C           -3.21843717709128       -1.78096302960081        0.00021624792911
N           -3.94579357098653       -2.67294109063480        0.00123637957338
C           -2.85573998118254        0.69284880686044       -0.00378819448623
N           -4.13304902229118        1.07704899593071       -0.00658546273629
N           -1.84588963038012        1.55325510359264       -0.00383580104379
C           -0.69184758733296        0.85126091394677       -0.00062793620322
C            0.48897552482989        1.57410950485026       -0.00016220725644
C            0.45043501558335        2.98560819751081       -0.00308716510729
C            1.73943190314713        3.48436127316200       -0.00188136976082
C            2.63237117991682        2.41192638114807        0.00180318063815
C            1.92455711833610        1.20239660099239        0.00298335510583
C            2.62493763581563        0.00664753898241        0.00656007432055
H            1.29487561174663       -3.15887262396357        0.01038911719351
H           -0.87367269657055       -2.66170271178572        0.00572651673077
H           -4.34834282712825        2.05867335602981       -0.00873940855481
H           -4.87194206613236        0.39558657811373       -0.00642850766513
H           -0.46145865125230        3.54929813678315       -0.00579482678218
H            2.01285163023321        4.52386649277009       -0.00349856166655
H            3.70438899639056        2.49064144005232        0.00349506708046
H            3.70123295838497        0.16819751262257        0.00820516057437
