29
 energy: -45.555165158797 gnorm: 0.000504299267 xtb: 6.6.1 (8d0f1dd)
N           -4.25464192097141        1.78793776535797        0.35843138131430
C           -3.09426372429556        1.10267374703433        0.20025638959597
C           -2.94003073992126       -0.28546463170648        0.29848836236530
C           -1.59298561972461       -0.61165378313597        0.14793087757679
C           -1.19986567232915       -1.92912327678349       -0.00156039630003
C            0.05730007121433       -2.54203623376329       -0.13933897200428
N            0.06938998533100       -3.77431743953862       -0.74293811346615
N            1.22771599946391       -2.20127777525206        0.35599739647427
C            1.86110902623670       -1.09507341330026        0.60897773323339
C            1.70171014912475        0.20697115378862        0.15039619182663
C            2.79314075566085        1.10153431047173        0.05666234686923
N            4.10849377987214        0.84117385243281        0.38534268139832
C            2.32812126105011        2.32731055485154       -0.43738908942421
C            0.95652613228063        2.25270085253011       -0.58566273548834
C            0.49882099980698        0.96488308010444       -0.23470579567513
C           -0.85688017964997        0.68704830181224       -0.04319165894618
C           -1.83415390624676        1.67804381882144       -0.02844546208909
H           -4.28471364416864        2.75524888663790        0.08787148913464
H           -5.12143600560043        1.27952088564172        0.35318016621190
H           -3.73565496001176       -0.99150371010396        0.45178836818236
H           -2.03121327316194       -2.62537391156585       -0.07292623354551
H            0.90606569199710       -4.32313709222800       -0.63941043504537
H           -0.79775477659067       -4.26594371721774       -0.87008756287262
H            2.77044840550923       -1.28207348431470        1.18332049371235
H            4.38586872917975       -0.12730095148387        0.38925820615896
H            4.78143095588752        1.45269458643473       -0.05032819255061
H            2.94433209343357        3.18430905901296       -0.64583334394115
H            0.33649013243226        3.05416571663966       -0.93924303216122
H           -1.66477106130892        2.73340814542233       -0.11807479224425
