26
 energy: -43.204270520959 gnorm: 0.000943773604 xtb: 6.6.1 (8d0f1dd)
N            3.82776010725449       -1.48032431877038       -0.54127257829339
C            3.06562959957145       -0.64134640940580       -0.34247860743515
C            2.20679172345839        0.43855535354937       -0.12963629613304
C            2.63850184161511        1.77154161119752       -0.21463660079118
C            1.55752410275286        2.61397976934259       -0.01933776553115
C            0.38980286165693        1.85825766033730        0.13809817366671
C           -0.79753779202483        2.44872439653972        0.55562632702435
C           -2.09574975083424        1.95808461006872        0.63724620528032
N           -2.66003454381371        0.98524329186032       -0.01727361709425
C           -2.32526276733976       -0.14892914955009       -0.55260372742521
N           -3.10879163430641       -0.60718773187897       -1.55083227377524
C           -1.33563309960805       -1.04178286459189       -0.02399818175759
C           -1.52015331424862       -2.39321435622528        0.15180837975886
C           -0.30200904007261       -2.96682088735929        0.60132379990043
C            0.66015919807932       -1.99658930961684        0.62009051082420
C            0.07374664716713       -0.74438118420193        0.26349700292462
C            0.80087496283017        0.41792618452040        0.06620604071999
H            3.65305620509044        2.07281582303362       -0.40765445469708
H            1.59414787906927        3.68761255926512       -0.00827769417433
H           -0.68959384783312        3.47919387880628        0.87634239610897
H           -2.80943477098395        2.55654261145316        1.19836143623487
H           -3.88536617382239       -0.05426262990921       -1.87013445663382
H           -2.97031657064738       -1.53368763864662       -1.91112951005657
H           -2.44345288558939       -2.92792120901062        0.01645901832275
H           -0.16734329843033       -4.00191127480632        0.85589234460597
H            1.68074477270894       -2.12532077690091        0.92120299342554
