24
 energy: -43.758173936905 gnorm: 0.000726591313 xtb: 6.6.1 (8d0f1dd)
N            4.87660025512469       -0.65456597912313       -0.23546482243852
C            3.84743925309847       -0.14325538618146       -0.20345347751549
C            2.59137143111114        0.45939214568946       -0.15527675499843
C            2.29930107529561        1.82653654794618       -0.28758340957298
N            1.00677576001618        2.09132352123883       -0.16524111626674
C            0.35590853503371        0.92594882057750        0.00216860589155
C           -1.01779331229745        0.94156881784699        0.14559365900087
C           -1.77400690725246        2.15373791255150        0.29397462520945
N           -3.06293054676352        1.93767559048694        0.29415228253898
C           -3.24517594466883        0.60667291872224        0.08186631714430
C           -2.04858101675208       -0.07553285446655       -0.00450119164786
C           -1.87066791633930       -1.45492963759256       -0.33965989438050
N           -2.71959199105759       -2.00287333328801       -1.22523996270667
N           -1.04887718513813       -2.25299464376922        0.27589841611125
C            0.13663747076431       -2.27985838131663        0.78605383449666
C            1.26295138439889       -1.50199329583259        0.48970493097396
C            1.35410856039944       -0.19773101957424        0.04558551505881
H            3.00456202150910        2.61781732795155       -0.47222343261273
H           -1.35355950800359        3.13131186744606        0.42507520475397
H           -4.24077687490161        0.20189013609454        0.04472334498626
H           -2.67526933883173       -2.98875456040827       -1.41982229146920
H           -3.46222257448718       -1.45021051454473       -1.61479192363037
H            0.29600654663903       -3.12070412759301        1.45747939419689
H            2.21359338940289       -1.97127708736202        0.72095247817617
