28
 energy: -51.441254428973 gnorm: 0.000492240171 xtb: 6.6.1 (8d0f1dd)
N           -3.76481622676688        1.86179145653686        0.97536516002130
C           -2.74121609509419        1.52784959746215        0.57742222658554
C           -1.42191274079995        1.21019606659075        0.16364594498709
C           -0.63979416447272        2.36322211794441        0.04010715170948
C            0.65377816035000        2.65678624711747       -0.33152992990333
C            1.84830794619579        1.92973097186121       -0.47389050617042
N            2.88395874269026        2.65321665322420       -0.95422519243164
C            2.16877328834874        0.59899946897829       -0.09002193819489
C            3.47786084901794        0.18632383073406        0.14725592545202
N            3.61059629169962       -1.13128671530791        0.38688084550755
C            2.40665099795291       -1.65884404659209        0.25585921664496
N            2.14680010088500       -2.95159389681044        0.39543697983823
C            1.37926320426204       -0.62505804549493       -0.00087399563045
C            0.05936445239901       -0.95591387781279       -0.10911830594833
N           -0.27728939166475       -2.29373779608172       -0.19690277185688
C           -1.57756278949321       -2.37501714221347       -0.27241532375616
C           -2.21000770005449       -1.10455032244855       -0.19222765407558
C           -3.59287769573541       -0.94078185902499       -0.30753030095157
N           -4.73138714264104       -0.90949505751920       -0.45812700980194
C           -1.18541244113877       -0.15611550263894       -0.08175257689485
H           -1.23304428664925        3.25846655477123        0.20943372781948
H            0.80295008927534        3.71633090600753       -0.51656787442402
H            3.77916918104807        2.22720634867052       -1.11123415068673
H            2.75884772752154        3.61964308286479       -1.20106180084973
H            4.36035749155033        0.79885746828057        0.21315641431750
H            1.18046500869754       -3.22765906080751        0.20690924379833
H            2.90042167286226       -3.58515903784183        0.59745815375363
H           -2.07342741254827       -3.32332078995245       -0.38284378126208
