30
 energy: -55.689982466536 gnorm: 0.000513288782 xtb: 6.6.1 (8d0f1dd)
N            5.56714282224173       -1.95919937130889        0.17093950963265
C            4.53894815306165       -1.45595459825423        0.07166249952064
C            3.31607077032186       -0.78713033764228       -0.04616950334560
C            2.04672239593682       -1.33049123876772        0.04014811961447
C            1.08099106352337       -0.30838139644099       -0.10321810315624
C           -0.25557524903809       -0.65992887780932       -0.08674670311168
N           -0.53036914329735       -1.98671033724495       -0.01140560433471
C           -1.84113547835088       -2.13550925143331       -0.00716545205620
N           -2.44787603385623       -3.31957938345605        0.03572226819693
C           -2.52278693932773       -0.85760150892148       -0.05528554829386
C           -3.91379094428938       -0.80732491635699       -0.09843378307576
N           -5.05406107178911       -0.95219523062519       -0.15495596578699
C           -1.52874542663425        0.11396876265614       -0.10519070448824
C           -1.82099271070610        1.49582833824207       -0.09748209069109
C           -3.18304528479590        1.80850917585876        0.16008591885406
N           -4.25115299871749        2.15008663441379        0.40428840346059
C           -1.08267975341284        2.65527135771394       -0.31671677747617
C            0.24458665282039        2.96892090745061       -0.57360618224280
C            1.43701446313813        2.26331214962752       -0.56346248952390
C            1.82472475495056        0.95677759845420       -0.30862553890821
C            3.19727742515651        0.61685106821022       -0.26871859972032
N            4.27195415259344        1.42230703430131       -0.43879945450546
H            1.80463556455328       -2.36219741881660        0.20016681783806
H           -1.89328867644224       -4.15756452865872        0.06185509129354
H           -3.45261322950811       -3.37323607659224        0.02601501131583
H           -1.71778108652844        3.53751703911690       -0.29804610891665
H            0.38293917291953        4.02357067404473       -0.78417718058383
H            2.28387719187401        2.90802870662035       -0.78048945134248
H            5.18399499398414        1.03778831555976       -0.25935066271825
H            4.17664338791967        2.42170304705499       -0.40992682134458
