32
 energy: -54.316672363683 gnorm: 0.000643911752 xtb: 6.6.1 (8d0f1dd)
N           -5.55888728056735        0.41843853533552       -0.59103058045910
C           -4.46862991915283        0.59088852815863       -0.26654394948701
C           -3.14980322478184        0.81774350216650        0.12728859488711
C           -2.71364927428405        1.94868755957576        0.90380447092043
C           -1.36163469256738        1.89233211525967        1.00632382205691
C           -0.89125399638377        0.68398089863957        0.37577841911650
C            0.43874664647775        0.36849775551180        0.17048625702416
C            1.48222605366363        1.40769933582769       -0.01572790525630
N            1.24466684951838        2.72549185684565       -0.10144231800746
C            2.68638091486587        0.77166720457142       -0.22738947545052
C            3.91783700765963        1.36060430614754       -0.49437550549712
N            4.94518813688485        1.83518626022702       -0.70673037911907
C            2.44908231627180       -0.65639175920973       -0.14483418173539
N            3.41834122769000       -1.57590232906703       -0.28244385313175
C            1.08718015635500       -0.88496867624887        0.05883739450389
C            0.57029269580256       -2.21522270955397        0.39699566421106
N            1.44889459613003       -2.94441363645603        1.21056304687920
C           -0.52111262277651       -2.82258062024765       -0.10243075922099
C           -1.53550800712680       -2.32713387850681       -0.99222924947006
C           -2.18347784988523       -1.14766246572999       -1.00415680551705
C           -2.06183706252089       -0.00088957584160       -0.14711187395494
H           -3.37103213169994        2.69109510579340        1.31793780568274
H           -0.74981555108586        2.54839801915432        1.59967703046701
H            1.97672302635101        3.33555098556699       -0.42468853324935
H            0.29514031708349        3.05916631899013       -0.08703747391055
H            3.18729575943767       -2.54760350487524       -0.15423503047130
H            4.37878114071804       -1.28791530961880       -0.35301378659971
H            1.04281543230191       -3.78432938488359        1.59893170647988
H            1.92638015862579       -2.39119782103152        1.90803251975620
H           -0.66140749167105       -3.86390554325699        0.17247434026924
H           -1.91734673000533       -3.08479280375705       -1.66867111525994
H           -3.01852737742983       -1.06693552468623       -1.69274624925523
