24
 energy: -42.963322595509 gnorm: 0.000570974675 xtb: 6.6.1 (8d0f1dd)
N            2.30116556623772       -1.77118927031634        1.05229981459461
C            1.27987618260451       -1.34108572424829        0.27338940694522
N            0.52689269820021       -2.26777126116518       -0.24259314282388
C           -0.67041772710858       -2.47706833493091       -0.68880267223234
C           -1.87777487526705       -1.85383765881884       -0.38184472522402
C           -2.12452873914754       -0.55260866535866        0.02575442996013
N           -3.38416799757788       -0.14658590970153        0.23000261247599
C           -3.30799188232205        1.18135341213294        0.35313057782864
N           -2.10998087990570        1.72636868676833        0.21554816756048
C           -1.26752578057719        0.68697442025079        0.03498569036629
C            0.08056987946615        0.90247450437978       -0.15203378801414
C            0.63978176666507        2.21811687479118       -0.28013897420221
N            1.94599839546012        2.20889762615318       -0.30816835153487
C            2.33772242918268        0.90662966634627       -0.15104086869417
N            3.67383708466350        0.61154869086446       -0.08147888703759
C            1.24829326054466        0.04099228391112       -0.06783514590079
H            2.29161849790952       -2.72412767041679        1.37527894089994
H            2.85749287271261       -1.09401198233490        1.54462615874028
H           -0.73613745500840       -3.36756713379969       -1.31170608502770
H           -2.77571652815668       -2.42356497750726       -0.58526804293441
H           -4.17991162673945        1.77819243266094        0.55501399468987
H            0.07144330653982        3.12289344421672       -0.37149932937771
H            3.95269356286791       -0.30227277870966       -0.40452048753674
H            4.26051600345598        1.36893808653236       -0.39930129192094
