27
 energy: -51.720413310233 gnorm: 0.000979012023 xtb: 6.6.1 (8d0f1dd)
N            4.31091614072918        2.00642250208249        0.75928050618649
C            3.24677580090144        1.68563244547017        0.47772921864338
C            1.90748543904354        1.35497314203303        0.15721038157998
C            0.99345012231624        2.40023757095525        0.30753577865631
N           -0.18204870169015        2.55368652735652       -0.21986936937871
C           -1.22281921416082        1.86151870587805       -0.55519910601426
N           -2.07479023953228        2.41839785089646       -1.44103871947865
C           -1.62821773239042        0.63960295669870        0.08066696530876
C           -2.92357092442652        0.26966851497480        0.42423021399815
N           -4.06795300437429        1.00175937039339        0.37904429548476
N           -2.98185527800099       -1.03877905481125        0.85443959037753
C           -1.78975513750589       -1.53270180376485        0.72558983667751
C           -0.82785718226451       -0.55351102877292        0.24749154958428
C            0.47557424121825       -0.85010030192887       -0.08343551101484
C            0.99636987492325       -2.16926678724589       -0.26906631094969
C            0.30859123890855       -3.38348582850234       -0.31750840740151
N           -0.21363995203872       -4.40574769824252       -0.37581968403598
C            2.35022563049395       -2.02257562018308       -0.54944793645200
N            2.75524997507503       -0.74720817088420       -0.46293354912590
C            1.69681140492166        0.00812051994019       -0.20917777912918
H            1.36194376940888        3.29081165444352        0.81197232439701
H           -1.78278702391625        3.23626337360237       -1.94957885743801
H           -2.86425249965221        1.89101434285180       -1.77059075874272
H           -3.99403056477782        2.00512282716677        0.42796625364008
H           -4.84473656013223        0.58757652630201        0.87056118531049
H           -1.57098299597963       -2.54277636274535        1.01330954276077
H            3.04446518310299       -2.79802749726589       -0.81809554804359
