29
 energy: -55.973542216216 gnorm: 0.000835905309 xtb: 6.6.1 (8d0f1dd)
N           -3.74087744892244        3.78716343793696        0.16921030689324
C           -3.00018108748140        2.91326876986079        0.11530651029885
C           -2.09277309419319        1.82189009138938        0.05417469941027
C           -2.73184311321916        0.58253322027656        0.09796251356639
C           -2.31337365538122       -0.73122435792720        0.03209104149720
C           -3.25964124057489       -1.77034118154752        0.04300396504724
N           -2.73328764305877       -2.99174751264400       -0.02716433785400
C           -1.40962096861309       -2.83650321064435       -0.07541882862784
N           -0.57145836207345       -3.85933335013627       -0.15137248300146
C           -1.01515813021799       -1.42578656641533       -0.04385959613867
C            0.29477828643086       -1.04743839894026       -0.03699857433428
N            1.25634531386700       -2.03241796194474       -0.03279862320490
C            2.43264903419538       -1.45458574282299        0.03416353888697
N            3.59184759998734       -2.10691955431662        0.07824529850154
C            2.31462230619941       -0.00408699840602        0.05033997512532
C            3.46902057991190        0.77056104613046        0.15694192490387
N            4.51795146855690        1.22816118073934        0.27495075092010
C            0.96133824250097        0.28756774253247       -0.01247789528916
C            0.48503588531701        1.62177461284000       -0.09446597162229
C            1.51209419956070        2.59406143001604       -0.24697812507200
N            2.27791184282641        3.43353456799814       -0.40472808712673
C           -0.75856145574761        2.23310437984301       -0.06481517617579
H           -3.81265201321677        0.66935070709960        0.17898703304912
H           -4.32680708467022       -1.64897293938998        0.09741577898209
H           -0.93892858379960       -4.79514526289342       -0.14631346530111
H            0.41873402750590       -3.61615601214470       -0.14155607986387
H            3.61087270329872       -3.11168265128433        0.06624853829129
H            4.45281155718240       -1.58900042750861        0.14135265191388
H           -0.67747952487057        3.31663914370319       -0.13568241387518
