28
 energy: -51.432844378288 gnorm: 0.000730480847 xtb: 6.6.1 (8d0f1dd)
N           -2.71510463296003        3.95388856133673       -0.06226122030445
C           -2.27390067332601        2.89344059127824       -0.12171842069601
C           -1.69934894937540        1.61165112570037       -0.19261122302879
C           -2.40663724226731        0.65929622328217       -0.96496973454928
N           -2.54640774978557       -0.58169267024908       -0.69434082637737
C           -2.01436064093959       -1.56648790894441       -0.04802317982915
N           -2.72474835010405       -2.59137851748803        0.40997311554642
C           -1.83865207252106       -3.57032216826207        0.67228863151888
C           -0.51890761527969       -3.22432214253196        0.41450168428723
C           -0.53553448612057       -1.87769277910527        0.03659359808874
C            0.51671544405142       -0.98373224046884       -0.03578136659305
C            1.86051084423855       -1.43630019317451       -0.11813809829274
C            2.70358118596151       -0.34763878885908       -0.10640040076583
C            4.09171185859820       -0.32922214413327       -0.26214020139094
N            5.23142433258167       -0.25896659780191       -0.39347175678261
C            1.91009847103999        0.83680878386640        0.07461540822288
N            2.47534633136592        2.08688800379467        0.17527356154070
C            0.56087077351518        0.47491743162530        0.11265465527849
C           -0.44983734312130        1.44361912430687        0.43866781446272
N           -0.06060997554228        2.42603050602101        1.27698119869327
H           -3.02891403008322        1.02797370193366       -1.77685735093345
H           -2.19564421541051       -4.51038270509799        1.05529278975166
H            0.33890127234929       -3.84912349309838        0.55960837286575
H            2.15581375256959       -2.45961325835315       -0.24254706006311
H            3.44340443280146        2.12760101484272       -0.11098010733991
H            1.92312679954647        2.86713215013198       -0.14899235733404
H           -0.68741911542482        3.18403022937302        1.49323414779132
H            0.84169945182527        2.38995075627811        1.71872895592633
