30
 energy: -54.890504334870 gnorm: 0.000830260638 xtb: 6.6.1 (8d0f1dd)
N           -4.67561166403605        2.24314455301436       -0.14809278360635
C           -3.60416792964971        1.83080905939976       -0.07933553415918
C           -2.28331172177327        1.32906546984429        0.01329235828627
C           -1.39961091816180        2.30058777384789        0.45587778230701
C           -0.02020414676334        2.43439332834179        0.53873597225743
C            1.06166200668816        1.61800036878703        0.26817120963993
N            2.26514180007870        2.21918772379187        0.25329238310673
C            3.18014387065242        1.28164848910683        0.00525906031187
N            4.47848360848671        1.55975788543443       -0.11231467422649
C            2.59266445362523       -0.02219581614220       -0.11022202039413
C            3.37212714135742       -1.13821210595368       -0.39459132782922
N            4.12260773894241       -1.97659407512287       -0.64121815795171
C            1.21369357701039        0.15071577997829        0.05525744242867
C            0.28850014781711       -0.88882095266463        0.14924520065538
C            0.70029576191641       -2.22497540627756        0.33058913425494
N           -0.31305421206305       -3.07809999078058        0.37873800265882
C           -1.42723767113196       -2.37014401518960        0.15555613416507
N           -2.64546019251051       -3.02752870182284        0.12744630076858
C           -1.16880241348468       -0.97879794712205        0.01384120987629
C           -2.17737310537131       -0.06723473475535       -0.32384949941926
N           -3.26774929852065       -0.58197996876007       -0.92773502421761
H           -1.91713040327503        3.22056457666184        0.71735251848217
H            0.30988155657096        3.43150128395902        0.80718942632002
H            5.13794296372488        0.82628194855310       -0.30900467714282
H            4.78577532407174        2.51250163676229       -0.02313432374957
H            1.70372991037517       -2.57283603755704        0.48314129897216
H           -2.52090180992310       -3.99504985791660        0.39882712761251
H           -3.39013811117630       -2.58102920274257        0.64762077904766
H           -4.05995219575074        0.00031948059184       -1.14481114593887
H           -3.26448860752688       -1.54841397306492       -1.21381614701683
