28
 energy: -51.445586586038 gnorm: 0.000731394399 xtb: 6.6.1 (8d0f1dd)
N            5.53092427928344       -0.16182122157303       -0.57166961641436
C            4.41287461070283       -0.40728354403726       -0.46048661979739
C            3.06192926140062       -0.73297759498954       -0.34306669985668
C            2.48582547570671       -2.00293678598411       -0.71625035054282
C            1.16384605886989       -2.00955511957075       -0.41626752303224
C            0.78246659100271       -0.69435150818884        0.04121827937848
C           -0.50583665556636       -0.23606648346667        0.14324027585462
C           -1.66206774033391       -1.13818321944053        0.24037936079030
N           -1.60900238708265       -2.42903600879217        0.60998276819625
C           -2.81375123856077       -0.41770800768040       -0.02132543409814
C           -4.12099490412556       -0.90007062573506       -0.00969855492382
N           -5.20325718132761       -1.29043768256301       -0.00466499566132
C           -2.43722128725912        0.94746330756897       -0.28423519017802
N           -3.33197498165871        1.90613701845648       -0.57659665016755
C           -1.05786283882150        1.08993036737079       -0.10541252615017
C           -0.37868941931759        2.30780304812852       -0.40086118006104
N            0.68878732386790        2.78713445339389        0.10903465215480
C            1.55324190116888        2.24859410674178        0.97412194711475
N            2.24915927440380        1.18530139004868        0.86359300266506
C            2.05341616861466        0.08036874998039        0.13872776095862
H            3.04672394550463       -2.80373122331363       -1.16342094709194
H            0.48502992441049       -2.80650378843706       -0.65187020782747
H           -2.47297129643263       -2.91448115536318        0.78762224197756
H           -0.75847848800263       -2.80497800568013        0.99121335389115
H           -4.29261822842198        1.65562019981071       -0.73518232164838
H           -3.03308381873366        2.84150906022676       -0.78679479529356
H           -0.87811823030022        2.97581131553457       -1.10253922068437
H            1.82200616300658        2.91069480724548        1.79495295615173
