23
 energy: -39.236931988419 gnorm: 0.000933963386 xtb: 6.6.1 (8d0f1dd)
N           -3.80189327842138       -0.19578189757482        0.17668541274514
C           -2.57951390191509        0.36280399466029        0.00222275799006
C           -2.37901834183757        1.75050417415217       -0.30046221676930
C           -1.04959013088180        1.97372883351763       -0.43810532390279
C           -0.33349007995326        0.72948640940997       -0.29586030414990
C            1.03342184023079        0.72490246788478       -0.23429255353770
N            1.72426073849178        1.89706868709126       -0.13257990923703
C            2.92633315720316        1.58698369972328        0.30172002232734
C            3.14709617274384        0.19835568185323        0.44099198910371
C            1.99060521110636       -0.41659003053755        0.00932356598345
N            1.84963593263009       -1.67389596674524       -0.36320642412580
C            0.84202494856463       -2.44881258857342       -0.52316912580350
N           -0.30243930698059       -2.51582865000203        0.15043348538273
C           -1.18867321937855       -1.62870513962119        0.42785626568025
C           -1.34458052970205       -0.29476999358108       -0.01227261379285
H           -3.86452032886256       -1.12937278479103        0.54637265094623
H           -4.58544614919578        0.41438041203424        0.33208948236999
H           -3.17194308136616        2.47202854988716       -0.37987745722041
H           -0.54835219427867        2.90071126557729       -0.63519813186908
H            3.64264004390578        2.36593344039698        0.50276437770293
H            4.05854270331295       -0.27754658386043        0.74248269531540
H            1.01792393981768       -3.31427019341829       -1.16121320030995
H           -1.99838414363367       -2.01692873928280        1.04865057907118
