28
 energy: -51.464821087931 gnorm: 0.000680725930 xtb: 6.6.1 (8d0f1dd)
N           -5.30224999003317       -1.32563701192359       -0.07979007910252
C           -4.25575052776862       -0.86218655328059        0.01517636965539
C           -2.98630156997680       -0.28177249967980        0.12806840950890
C           -2.70930428994147        0.97257136201995        0.67463987086750
C           -1.33501070882543        1.22530056581186        0.54057801162384
C           -0.78336926732710        2.44609716192938        0.92062211828113
N            0.21742221292356        3.09301708715787        0.41153414343783
C            1.29881611851107        2.85244536049641       -0.26896825909605
N            1.73063946778416        3.85690858698787       -1.06127490058365
C            2.17973548698027        1.73691367189611       -0.12052684490223
C            1.90180897893073        0.40978896907581        0.01425124079400
N            2.97156439357711       -0.43468237694705        0.03927003430856
C            2.50831348450340       -1.66097022818317       -0.08191520747507
N            3.28586220321667       -2.74541058550536       -0.11362603879510
C            1.06171473565139       -1.68722782892409       -0.18220049390200
C            0.38896846003894       -2.89933929132401       -0.29119409303416
N           -0.03793248115161       -3.96539172960969       -0.38134323933119
C            0.62853895106742       -0.37070667286232       -0.07502821162244
C           -0.72666333412030        0.02393176820704       -0.03707976195315
C           -1.77332832314423       -0.86915636274841       -0.27445349706054
H           -3.43319138005162        1.66147249166687        1.06924864114008
H           -1.36133445415920        3.04088380187492        1.62551570376938
H            2.60433578756647        3.78548190660069       -1.55033427969952
H            1.16536523609351        4.68118896015994       -1.16671801218413
H            3.23558309957948        1.95733527405386       -0.21647283479326
H            2.87490888560990       -3.65907529783922       -0.19716783363166
H            4.27851922613509       -2.64250084554996       -0.00017357758797
H           -1.68337961876996       -1.85400426536156       -0.69110818673212
