37
 energy: -71.333008498274 gnorm: 0.000892988787 xtb: 6.6.1 (8d0f1dd)
N            4.83053264487007       -1.99371159479978       -0.13061912296256
C            3.68560886532010       -1.94237738689553       -0.20025916196676
C            2.29386719404885       -1.88408885425713       -0.34075478599218
C            1.49328609205984       -2.91994911050550       -0.89908273254569
C            0.17523897322618       -2.52536218029187       -0.84103135396934
C           -0.89596271695038       -3.22277463833308       -1.40278827145679
N           -1.78457019863101       -3.80044155273991       -1.85204687754902
C            0.11860115475311       -1.17565936390320       -0.31405124105453
C           -1.02100407302576       -0.43733305387025       -0.04327926450653
C           -2.29844044602531       -1.00750279673423        0.45139206795057
N           -2.47237326848907       -2.26712603766732        0.85182407210834
C           -3.18847738581581        0.03835494162471        0.62621257881539
C           -4.49003955710095       -0.03066806453283        1.12093151693897
N           -5.56760032273949       -0.06011984974895        1.52137254061001
C           -2.53912442612601        1.25179009648450        0.20757675728968
N           -3.14314823222976        2.44520458902005        0.18036806066993
C           -1.20912028047455        0.95992586738385       -0.15008964268041
C           -0.36632490860682        1.92253440414720       -0.85129837983608
N           -1.02658649726551        2.66146144193059       -1.80030582868174
C            0.93252692236434        2.21423053398283       -0.54431444673471
C            1.58059882558228        3.23643616344727       -1.26076530584883
N            2.09444513449835        4.08504373809127       -1.84238793213204
C            1.71744428809672        1.66220566312415        0.56508299381028
N            2.29171979805851        2.58824665936100        1.37199046930255
C            1.95151739010086        0.32293548970953        0.75949730272824
C            2.81973498508021       -0.03368908847555        1.81296318309048
N            3.48603086230041       -0.29794820288224        2.71110213947942
C            1.48361179633225       -0.79345568089086       -0.03094367662485
H            1.86650858012319       -3.84049832399412       -1.30775751494708
H           -1.82966542642411       -2.99023737371167        0.57033154601012
H           -3.37914912028969       -2.54725262860074        1.19008649015713
H           -2.62784748030117        3.26974523527542       -0.07771122227808
H           -4.09150442791262        2.53174331875937        0.50492967199699
H           -0.46295118367525        3.25043735601422       -2.39596346950393
H           -1.83405769884379        2.24606658473626       -2.23588755046862
H            2.30556476997727        3.55270869717414        1.08495313441303
H            2.98292995613150        2.28670481366796        2.04146605497090
