26
 energy: -46.421614862840 gnorm: 0.000617370571 xtb: 6.6.1 (8d0f1dd)
N            4.38334183727934        1.08241329811142        0.38217497890039
C            3.17983366952610        0.53757268508206        0.19480649548935
N            3.01307813888198       -0.79794966709006        0.08669333292134
C            1.70034046181931       -0.97010008267382       -0.07025162444637
C            1.21176543104574       -2.21576681394739       -0.44059107320997
C           -0.08929475963805       -2.64226699124746       -0.67239068576494
N           -1.22587363578836       -2.24199118133939       -0.19095377404349
C           -1.78836351774618       -1.17874315458277        0.31140017149576
N           -2.86374570532437       -1.41295438570263        1.10557549098612
C           -1.52440547088118        0.16985632548509       -0.04744097361572
C           -2.46169680450672        1.20376043417839       -0.11576303239667
N           -3.83184192251221        1.12246782545090        0.00101604991105
N           -1.87481646319896        2.41572378167599       -0.31175020584993
C           -0.57702872714414        2.20801304210095       -0.32158927952316
C           -0.23710800757908        0.83131818461229       -0.18890914549781
C            1.07008923709115        0.39958918963294       -0.04585876865402
N            2.06843155831332        1.28066211995666        0.09402254202525
H            5.18481253733660        0.48559408557547        0.47192711309318
H            4.46171755204363        2.07947984146441        0.46449826627781
H            1.99230920973625       -2.93132571641408       -0.66652715531455
H           -0.18939606606845       -3.55708026861415       -1.25543439149380
H           -3.28521988290086       -0.64183204440019        1.59357141615144
H           -3.01981216540345       -2.35000852031197        1.43582969860803
H           -4.28901371000623        1.96235387820555       -0.32443054878763
H           -4.24942666484570        0.27065040469096       -0.34420183799266
H            0.12391115967049        3.01004183050126       -0.44741043026899
