30
 energy: -55.673493349264 gnorm: 0.000497160440 xtb: 6.6.1 (8d0f1dd)
N           -4.24167633228416        0.95192206262643       -2.16993867938392
C           -3.49018987462921        0.98145639621199       -1.30495420124885
C           -2.52961872093295        1.03804672880756       -0.26313412110163
C           -2.19622778447357        2.23958131826753        0.23705306313841
C           -1.28420638424405        2.52196595013944        1.33091632508369
C           -0.02261769522270        2.11547036197819        1.46107464818646
C            0.74924050609388        1.25595584864279        0.56876252673127
C            2.09695831005983        1.52567747680947        0.25333977108531
N            2.78408500796852        2.62757243016444        0.55921360572144
C            2.65686396421601        0.40303621503374       -0.45879503935709
C            3.94825946855249        0.35864880220055       -0.98036496368613
N            5.01948603305732        0.34684423530998       -1.39887174126560
C            1.68694313754825       -0.57885891314108       -0.52093230744010
N            1.75174003982256       -1.72440305172448       -1.19365253568421
C            0.45911317001165       -0.04898097968318        0.14567990360946
C           -0.72037788571767       -0.76854988238159        0.30368639946208
C           -0.89652885061919       -2.18818377360476        0.49039558434038
C            0.08541615980712       -3.14078664609203        0.75618184340779
N            0.89907621953537       -3.93107757626375        0.95458122262853
C           -2.26460266983431       -2.39786907534096        0.53692592180921
N           -2.94425824930186       -1.26189098412564        0.27156459894812
C           -2.07558153809710       -0.27720033326629        0.18773486308091
H           -2.70788887480688        3.11008855745477       -0.16045548072086
H           -1.68487985072323        3.20802405153451        2.06834869556065
H            0.54343723885148        2.48118632294259        2.31296288540131
H            2.33996049277207        3.39159110851300        1.03900136996530
H            3.75706828183941        2.69962979843130        0.31117460394104
H            2.62751351113364       -1.99762596060699       -1.61106896800376
H            1.04445535928055       -2.43288763772623       -1.07401100021249
H           -2.78377743476363       -3.31539133151120        0.73939348950287
