27
 energy: -46.120923316691 gnorm: 0.000921943863 xtb: 6.6.1 (8d0f1dd)
N            2.02481289709145        3.04790123143019        1.23703383032285
C            1.40222325273501        2.19659993665723        0.38666176825715
C            2.24569941690712        1.12455679254034       -0.10653900736984
C            1.96445782821459       -0.18968320680444       -0.25130545593199
N            3.02503738804871       -1.02638986245871       -0.51522455487448
C            2.56447179335271       -2.24992049458792       -0.39466229502661
C            1.19747554248166       -2.31480634734557       -0.06218159264883
C            0.72805538032123       -1.01064442147228       -0.00810418728791
C           -0.60747132426987       -0.61112318151524        0.14281272835507
C           -1.68022856923367       -1.49927773891410        0.37357231143317
N           -1.63425129338546       -2.77567862262509        0.84580413857370
N           -2.88890357741292       -0.96930839192024        0.06006488077912
C           -2.66401460935462        0.24981726841092       -0.40654820391288
N           -3.68484630829220        1.01933609096366       -0.85396718668445
C           -1.27378127836199        0.61865226331746       -0.32024233877049
C           -0.82482978632390        1.89299922650608       -0.51479925013695
N            0.20566913508134        2.51284568564828        0.03961570361424
H            2.96178984719961        2.86438086063126        1.54557287477733
H            1.49553514033236        3.78808297118385        1.66382816019937
H            3.29227227398695        1.37832216563747       -0.22408994736161
H            3.21683143065915       -3.09292023738509       -0.55514447204905
H            0.62926030082030       -3.22063323355224        0.00141739099653
H           -0.86753291327066       -3.01201330352284        1.45420240888752
H           -2.53574148728434       -3.15099775110033        1.09514013032856
H           -4.61131810214101        0.69630348713865       -0.63406584140541
H           -3.54750284425153        2.00797630530966       -0.96097059914079
H           -1.48532237564984        2.59068110202806       -1.02678303062277
