25
 energy: -47.490830220873 gnorm: 0.000890272334 xtb: 6.6.1 (8d0f1dd)
N            4.24725117003644       -0.75629459444701       -0.17473136317651
C            3.11325496106151       -0.57340285610543       -0.15932163345396
C            1.70871756853128       -0.44371142173878       -0.11128989487395
C            0.99872788964506       -1.65630137408081        0.23565489998677
N            1.66061823989908       -2.53967869120804        1.00435552251671
N           -0.14295955923444       -2.03776815279678       -0.24455896911370
C           -1.30612939368224       -1.56485052756790       -0.59210275386340
N           -2.01374645600941       -2.28619330343551       -1.47550277185983
C           -1.94174898149305       -0.44005178120292        0.01434835532477
C           -3.28655921329680       -0.32983761941786        0.32987638041750
N           -3.59993283521350        0.89307365013161        0.82124344042003
C           -2.50312446163995        1.61200007491858        0.78306257697720
C           -1.38003722481733        0.86268256655602        0.31212711421818
C           -0.15025405770454        1.42930445686119        0.02220140667313
N            0.02340450876031        2.75297403680362        0.00317088407146
C            1.29344332488304        2.94150955705312       -0.36544600327133
N            2.03101774551605        1.85674987200151       -0.54332096826656
C            1.19988746115364        0.82616404198017       -0.29396059388841
H            1.24266045045379       -3.43289020408721        1.20127533558801
H            2.62032849901766       -2.37300288593117        1.25757567705589
H           -2.95356207294127       -2.01519727206452       -1.70199246598847
H           -1.62266492210913       -3.12383392776026       -1.87080814306688
H           -4.04058669345708       -1.09517126306935        0.27442496065172
H           -2.47780998832227        2.63795460300112        1.09442414183757
H            1.69532269346351        3.92799557730674       -0.51103703351554
