32
 energy: -53.517428533483 gnorm: 0.000763914520 xtb: 6.6.1 (8d0f1dd)
N           -3.62672361015640        2.67999198508165       -0.83478003260312
C           -2.73633620283601        2.03667956137446       -0.48153777195423
C           -1.64488274831002        1.25143673173718       -0.07024236787347
C           -0.69628272949912        1.98590701914490        0.72041630148579
N           -1.24682709679027        3.03320693386966        1.41402669612535
C            0.68265789759149        1.88695322698538        0.79861588523982
C            1.65024201034447        1.03126600323262        0.27035708558178
C            2.97658247814620        1.41034968426013        0.17042848694899
C            3.73710245192139        0.32000998029071       -0.30889874807325
N            5.06144828314634        0.34134361019856       -0.56162912390949
C            2.89101370126099       -0.78994102548817       -0.44289786452050
C            1.59566310895276       -0.41647529384495       -0.10604844491143
C            0.54200070813998       -1.31392605009089        0.03219866926487
C            0.75554454582821       -2.70806851600828        0.21951844150196
N           -0.36788758205767       -3.38609452171711        0.33109697189387
C           -1.37143545738722       -2.49789767270048        0.13668069558960
N           -2.68120051684637       -2.95619210233525        0.13326634530636
C           -0.90065424178896       -1.18395263132226       -0.02361558118676
C           -1.73801390659119       -0.10508556747760       -0.41965619430599
N           -2.82794695948604       -0.47305520118190       -1.13761411194739
H           -2.20112841731000        3.29518656543805        1.22871609447378
H           -0.63917764440249        3.75288855369602        1.76730196337371
H            1.12966672955037        2.73769224325538        1.30830065803361
H            3.36874289552990        2.38714638047468        0.38668887364469
H            5.50020348830509       -0.45309862758429       -0.99172730898216
H            5.56377210663690        1.21050678554049       -0.53476892625472
H            3.19731014687014       -1.76140747030952       -0.77931623767448
H            1.70206563222386       -3.19459648618404        0.35970013494908
H           -2.72596401943430       -3.90682088799635        0.47540408584883
H           -3.34610959291656       -2.34871160739807        0.59348001706122
H           -3.49539498045028        0.21244333240713       -1.44772948214519
H           -2.91889366598475       -1.42898564724947       -1.43470539428039
