32
 energy: -53.517022980805 gnorm: 0.000804595664 xtb: 6.6.1 (8d0f1dd)
N            4.94676867430041        0.43695493733262       -0.86631173956165
C            3.82755544839906        0.33986358737076       -0.60979634763285
C            2.48198378030045        0.20693612161325       -0.29052040587085
C            1.82178783760656       -1.04608833439454        0.01032095972141
N            2.46686275429552       -2.23642183248409        0.00733523149171
C            0.46515119849903       -0.81599007544294        0.19990653580918
C           -0.42475319188237       -1.84049683181963        0.74263934316578
N            0.19505596356295       -2.67369588622835        1.68300395832254
C           -1.67173951367586       -2.12524964382603        0.33018873160627
C           -2.39214797388629       -1.43122859103922       -0.73344220473414
N           -2.95154145234464       -2.24174663673278       -1.67855807299752
N           -2.68135978358550       -0.18830876853573       -0.79382892790958
C           -2.31591975242458        0.86220068776187       -0.03250447116329
C           -3.15401543560156        1.88437087586699        0.32213562461980
C           -2.37135342802422        2.96098845396405        0.82685597410089
C           -1.04055368088351        2.66506983853837        0.70695783059738
C           -0.92350754241717        1.32271020712152        0.23479653445442
C            0.23444830801549        0.59669964237158        0.08619205667367
C            1.53787659542720        1.21143249464483       -0.20454926360571
N            1.73808784718567        2.52255415548078       -0.45443992435748
H            1.97367747159050       -3.03997577391300        0.35989056851908
H            3.47215180612283       -2.24176184593350        0.00171954582502
H            0.84299386475735       -2.19571649775612        2.29339853072896
H           -0.44751882561343       -3.26469784835330        2.19176943496547
H           -2.19165591702023       -2.96949546824984        0.76562068638430
H           -3.38092962897106       -1.79247998091550       -2.46983142258677
H           -2.58973985524832       -3.17042857190814       -1.80171518756512
H           -4.22401878061709        1.87584382782780        0.24370109844076
H           -2.77793578939241        3.87029280231194        1.23508765591203
H           -0.23161708254508        3.26604843510153        1.08164779943059
H            0.93133525509864        3.10897671620559       -0.58962528953231
H            2.60424465107161        2.79389213341883       -0.89025464715214
