27
 energy: -47.707930478350 gnorm: 0.000497752221 xtb: 6.6.1 (8d0f1dd)
N            4.93901930211967        0.78365615285032        0.52927657078170
C            3.81034718929020        0.68681480318614        0.33911402696210
C            2.41706414943567        0.56988292067579        0.10669494306835
C            1.87773190005959        1.74819364498461       -0.41997980831118
C            0.60590758129156        2.27795001416218       -0.53856914871568
C           -0.67621734631633        1.85085670476438       -0.21077422195605
C           -1.73878710629467        2.75553476680976       -0.14935516122304
C           -2.90941040611082        2.08449239137591        0.18323164062410
C           -2.64339653040544        0.71164194799714        0.27062621267544
C           -3.60372146793873       -0.23623809474134        0.63762882576042
N           -4.42911302014176       -0.96485610801606        0.96772133088523
C           -1.26248490902639        0.49695146806751        0.02425926893636
C           -0.70003241953360       -0.74891255509209       -0.16173827149192
C           -1.47019622917141       -1.90366219069163       -0.52644886082145
N           -0.72143960775515       -2.96158259976516       -0.70085057995566
C            0.53647362676918       -2.62506642054001       -0.34749020168346
C            0.66316164350721       -1.27023144202555       -0.05639358419881
C            1.88645532889627       -0.71307556504058        0.39988389039931
N            2.69780956174870       -1.56194477221383        1.06081484628024
H            2.65624418573308        2.45542929824100       -0.69325524193271
H            0.61203235111080        3.30863655782646       -0.88041317468766
H           -1.64914783488131        3.81619903796447       -0.29302025925406
H           -3.87229696871043        2.53305391721963        0.35044830004602
H           -2.51724207916076       -1.91980918567892       -0.75812636685807
H            1.31622264662654       -3.36321484800721       -0.41034147727382
H            3.63868611145674       -1.29488850625797        1.30336679702465
H            2.39528755250352       -2.50363417075271        1.23995604492103
