28
 energy: -46.639944740753 gnorm: 0.000653786269 xtb: 6.6.1 (8d0f1dd)
N           -4.24343862134085       -1.03546804026989       -0.34922856609050
C           -3.19221450740432       -0.58877212161182       -0.20062204007578
C           -1.91904442702731        0.00710789363451       -0.04317666517451
C           -1.98337773578281        1.42868963149207        0.04901812201310
N           -3.24846108264495        1.93690848730953        0.08962243269049
C           -0.98716255878719        2.41003203499882        0.10666655858636
C            0.39227382869715        2.44542186650198        0.05436146937592
C            1.43740540642072        1.54146620265134       -0.01564636646245
C            2.75362854293351        2.01792111560338       -0.06679747540810
C            3.66367927542071        0.96869915670763       -0.09117805716173
C            2.95938826877318       -0.23131668172542       -0.04764656585627
N            3.46977673148758       -1.46757573926935       -0.05895660652228
C            1.53470034670897        0.06315039700908       -0.00513423491288
C            0.60163513607787       -0.93552507399710        0.05373706328083
N            1.04667657424461       -2.23104559234897        0.10709756399217
C           -0.01030319663832       -3.02237150206350        0.10787353205216
C           -1.21063920786420       -2.31844792980215        0.04557940761652
C           -0.89809025567736       -0.95806689301282        0.02547616860488
H           -3.38994246560807        2.93054983088389        0.10058086312801
H           -4.05120642432836        1.33638075872327        0.01812100573627
H           -1.42075172641405        3.40350929283142        0.18023302153109
H            0.76673720739349        3.46570990543526        0.07491515285471
H            3.01683101901583        3.06087094943248       -0.08329631747577
H            4.73366443831251        1.05930128673105       -0.13149910975120
H            2.77224731084010       -2.21375198148665        0.02403009448603
H            4.46381630763408       -1.60792161151307       -0.04051156337190
H            0.11320495732641       -4.09097392805914        0.15696649502495
H           -2.19012972516791       -2.75305915388663        0.03820953819030
