26
 energy: -42.397027091090 gnorm: 0.000910135054 xtb: 6.6.1 (8d0f1dd)
N            4.31413549880241       -0.66513375488348        0.39119598360359
C            3.07302663841760       -0.19227722092203        0.20542389376499
C            2.69249207249091        1.15127349902476        0.00092205205316
C            1.30896338146530        1.16486078285950       -0.08819107590283
C            0.58715108746065        2.33195595793932       -0.33740776988901
C           -0.74895468966351        2.67883388907030       -0.30290286984342
C           -1.94161121661023        2.03977625535285        0.00478336408177
C           -2.36280946382320        0.71820410946662        0.18258982465560
N           -3.65102501239057        0.59108202938960        0.59825098290297
C           -1.70249266791588       -0.50849762925130       -0.09561440134905
C           -2.39437795895513       -1.69754924806676       -0.32646277558442
N           -1.57984151560964       -2.75658885645993       -0.50129103619436
C           -0.35189556313976       -2.31834322635953       -0.32883773577325
C           -0.30017881494688       -0.91289505864884       -0.10874379784969
C            0.92058174312837       -0.27419672896436        0.03942125332001
N            2.01705440164986       -1.02280221434696        0.20879085074943
H            4.43815834029706       -1.65742767759256        0.48562293924465
H            5.11370247457498       -0.06238226953925        0.32797470164059
H            3.35470135411081        1.99374341285402       -0.05356348795420
H            1.24308755260913        3.17308136783577       -0.54377813299836
H           -0.90054171771578        3.73798765123936       -0.49163131688853
H           -2.76540091333592        2.74073899605725        0.11692148376644
H           -4.22850568147638        1.40314176030200        0.72703523454275
H           -4.04923916151404       -0.31747470802951        0.74465977430308
H           -3.45467057840425       -1.84011035449295       -0.44856771681614
H            0.50122046949408       -2.96281461163386       -0.41093898198574
