29
 energy: -49.587787262778 gnorm: 0.000572591155 xtb: 6.6.1 (8d0f1dd)
N            0.42444445316320        3.60914717840681        0.98101850090739
C            0.21393305360500        2.43747340496151        0.31751255839481
C           -1.12559322069011        2.03486688210702        0.16635467112646
C           -1.66685177178456        0.78711883131758       -0.04810919474668
N           -2.99687275974757        0.65971054775414       -0.17843075894284
C           -3.21943102868583       -0.66315612827842       -0.12988435075863
N           -4.45709768820553       -1.17802768245488       -0.21138271625295
N           -2.14181021894126       -1.44229659025488        0.04484291604279
C           -1.09903442438758       -0.59778520003953        0.07072955911466
C            0.18629489630390       -1.08063292763166        0.25906947783976
C            0.41102474512710       -2.44264053988095        0.59754958149707
C            1.75649500800548       -2.69602594283488        0.59608976211996
C            2.43587390837416       -1.52020657928663        0.19503297481844
N            3.80964089925929       -1.44112661298035        0.02351241297740
C            1.49809125529237       -0.50007778874806        0.00070011314537
C            1.80244734745597        0.77685425219136       -0.54025303468932
N            2.89805281507423        0.85723504193269       -1.35649633879111
N            1.29317403092379        1.93420180225580       -0.23101710650291
H           -0.35565175196026        4.18932677582172        1.23048660400166
H            1.34451526960209        4.01257650132772        0.96242363135042
H           -1.86646796554551        2.81373498713917        0.29879797913919
H           -5.20585195573241       -0.57280728965537       -0.49479005471991
H           -4.55056177391708       -2.17322933617162       -0.30027189332950
H           -0.38103434021524       -3.12641045431816        0.83081390425827
H            2.23833000267596       -3.62782154070562        0.83359511763885
H            4.31960297544894       -2.14902158740014        0.53240730549416
H            4.19849129517757       -0.51615290601009        0.14018819831026
H            3.19503706240444        0.01738980119541       -1.82357493635583
H            3.03818422911891        1.73260119644057       -1.83388173448745
