28
 energy: -45.842504733332 gnorm: 0.000644737339 xtb: 6.6.1 (8d0f1dd)
N           -0.91143379204629       -3.35119907895273        1.10767989828878
C           -0.68023990003628       -2.23541548153636        0.36531498827699
C           -1.86755457574508       -1.50371378545430       -0.01430406074153
C           -2.07596174326098       -0.17394223740888       -0.15202011535143
C           -3.39884634049931        0.33763345494051       -0.37548014798275
C           -3.37754727121180        1.68680983804331       -0.19712044199320
C           -2.05256940938352        2.10502377438866        0.10140948173753
C           -1.20454223335417        1.02221419320221        0.10353118383348
C            0.19602493452395        1.12072661854012        0.26849110462999
C            0.84627022891137        2.32193969187395        0.58042756489196
N            2.17654476057388        2.25291865814104        0.45084402087301
C            2.45093480987340        1.02848282738883       -0.00190799559287
N            3.76030221246112        0.65427312123894       -0.27755394087343
C            1.28557554166942        0.23041126888768       -0.12008220122537
C            1.28130985496979       -1.10376053173762       -0.53880645450258
N            2.29482946309372       -1.54133849266592       -1.32909763071364
N            0.52889566977646       -2.07194538977168       -0.03832350920576
H           -1.80413602428223       -3.48079894504111        1.54881346845964
H           -0.11785299397257       -3.84479307298944        1.47875554111666
H           -2.74625124359714       -2.13514454408103       -0.10594232272377
H           -4.24954717905273       -0.27798796242166       -0.60147405878429
H           -4.22011053417921        2.35174030071396       -0.27860588582030
H           -1.76594776619325        3.12736729375475        0.25414523598724
H            0.39723462587177        3.23645939778642        0.91792935048668
H            3.99971553966388       -0.27825085523564        0.03413603810278
H            4.40331395980982        1.34934205910342        0.08036343760079
H            2.85601065592075       -0.85932712782053       -1.80947843209812
H            2.26676753649492       -2.48824145068716       -1.66526536427702
