29
 energy: -51.156135137297 gnorm: 0.000744774111 xtb: 6.6.1 (8d0f1dd)
N            4.96213048533954        0.27041750962990       -0.06442274594715
C            3.83877287416996        0.03591151855907        0.00352246616944
C            2.47095808750875       -0.23516851631788        0.07980308026936
C            1.88864162387114       -1.37928964249121        0.61750552723577
C            0.50014096398906       -1.34076650589766        0.39488191060880
C           -0.28123751342144       -2.47692468447929        0.60611822157389
N            0.17534173190583       -3.40517049700396        1.47678826701565
C           -1.39278614488831       -2.92934422588180       -0.18717320672453
C           -2.42812066747487       -2.31884379535102       -0.81027788525302
C           -2.93262958887252       -0.99891446387556       -0.74755472448828
C           -2.41044566630017        0.19282317412413       -0.34278493249842
N           -3.29057004432379        1.24368885415201       -0.25787848015212
C           -2.59956551485598        2.31114346957822        0.02283600842680
C           -1.19785283058000        2.05799180561004        0.09230405026276
C           -0.27596040081245        3.02882827783310        0.47139317916595
N            0.45004198965077        3.86372391756941        0.79173490045205
C           -1.02754639036972        0.68018361733367       -0.11659992000285
C            0.19812916846661       -0.00407269332554       -0.16221291113398
C            1.44132906433431        0.62588072248122       -0.38986049438303
N            1.69821297089626        1.74824007419763       -1.10901175185698
H            2.45480680483391       -2.21109028549880        0.99562253823817
H           -0.26285903843963       -4.30710984787936        1.54171235775318
H            0.96985185954782       -3.21134700359276        2.06001556286028
H           -1.38388965808938       -4.01180061100275       -0.28232621872765
H           -3.07776422245860       -2.99155064830491       -1.35936549010214
H           -3.97043749223529       -0.90832687353075       -1.04901566844412
H           -3.07256624416348        3.26297603938903        0.19046120054408
H            2.61330903681121        2.15686996901054       -1.00716347172596
H            0.95226518616128        2.39857920096353       -1.28725365333238
