29
 energy: -51.162036086130 gnorm: 0.000335793729 xtb: 6.6.1 (8d0f1dd)
N           -5.63884352680525        0.09083827918705        0.29431001734534
C           -4.51245196552230        0.18934728624325        0.08463446237142
C           -3.13533075855270        0.27866156740544       -0.12706249119208
C           -2.44352802978610        1.33106333442276       -0.75352330692285
C           -1.07487711592640        1.09750776204021       -0.66127591791225
C           -0.12307407139375        2.02432473313535       -1.09101185872057
N            1.04438776827222        2.26847064158477       -0.59443714186487
C            1.94349801503807        1.68401284591260        0.14822004725987
N            2.61770047934799        2.48559272829408        1.00540304901671
C            2.40388006186165        0.33192071058397        0.00541952639403
C            3.77286527572341        0.16014793674250        0.28656334006275
N            4.89245088684292        0.07188277187160        0.53758135781676
C            1.68261786700787       -0.81627276288960       -0.32635562856300
C            2.30369258703361       -2.04772503846399       -0.51950158402200
C            1.33566969350109       -3.05071725281347       -0.52367793329663
C            0.08557563189102       -2.49472976938160       -0.28633169779344
C            0.19897261208729       -1.09772370541864       -0.21019048175759
C           -0.88728293954193       -0.24294728645801       -0.08087013722996
C           -2.20166339159549       -0.68989293444312        0.28324997162398
N           -2.52202715209741       -1.84673235222597        0.92230474544007
H           -2.90045153592108        2.21098512629909       -1.16677439702049
H           -0.44949990268427        2.76291740307952       -1.81945272390534
H            3.48097680764305        2.16820637026923        1.41407575676121
H            2.41616789958044        3.47097659275327        1.00013566695206
H            3.36056420916289       -2.18961501630233       -0.64342640729925
H            1.52529222265454       -4.09521396503767       -0.69710809421277
H           -0.83952319299335       -3.03623161818689       -0.32612498830628
H           -1.79978408737517       -2.31081967831205        1.44858885102878
H           -3.46217298025407       -1.91853890749199        1.27907779814638
