27
 energy: -46.918232614394 gnorm: 0.000830003846 xtb: 6.6.1 (8d0f1dd)
N           -4.38991610254164       -0.23058883238211        0.31407532459088
C           -3.24996129538828       -0.08777351974080        0.28144533535796
C           -1.87271021975258        0.20243693759957        0.20368593116338
C           -1.57036736848051        1.57315018789453       -0.17028620704216
N           -2.44233930692763        2.16284979977897       -1.01875511493485
N           -0.63772145882715        2.31783915164683        0.32051174330560
C            0.57874754746523        2.19567962045196        0.78780306584734
C            1.56214250177074        1.30239016725781        0.42054837207266
C            2.93223975683936        1.63565727146679        0.45458971022309
C            3.66104084723922        0.64636459097287       -0.17500896608739
C            2.79380273215499       -0.39306237356990       -0.54517156458101
N            3.18833412759276       -1.54371639166602       -1.16820791332105
C            1.46959855258809       -0.05992215275062       -0.13606085647533
C            0.46687181359628       -1.00357900183773        0.07712522873727
C            0.64616789897641       -2.39022878504550        0.11624419381061
C           -0.56357788636093       -2.95094224069451        0.52258812851117
N           -1.53504872667169       -2.05704056875046        0.66893221903715
C           -1.00363530140314       -0.85196780293802        0.38789028524971
H           -2.34660173876962        3.14861193908798       -1.19503111453414
H           -3.31903854702873        1.71353631459153       -1.22468969264894
H            0.88856036644700        3.05214869597707        1.38210262546624
H            3.32179247263519        2.56118273920695        0.83686823397916
H            4.72170927564619        0.65174213491093       -0.35007069673866
H            4.10678603506056       -1.52791552363595       -1.58197231259518
H            2.48680092255261       -2.04705437727623       -1.68715665950080
H            1.56979281957882       -2.92408084059838        0.02115247181192
H           -0.75637141459249       -3.99072574085814        0.72343717039540
