29
 energy: -46.349255150828 gnorm: 0.000883848281 xtb: 6.6.1 (8d0f1dd)
N            4.03941687464223        0.41080780833614        1.08101705961974
C            2.97902845214585        0.40779207388390        0.63346344946029
C            1.65752828543552        0.43491506686372        0.13460322579941
C            1.11147371836887        1.71989697007861       -0.01349093809749
N            1.94519483671922        2.77004117549013        0.25862981950305
C           -0.11902527764489        2.10537445966237       -0.59071146411277
C           -1.38969736670862        1.58005222502604       -0.59343425190095
N           -2.35492133594166        2.34151686131866       -1.19757331783528
C           -1.90858654566992        0.43641867039292        0.10092266516554
C           -3.20094189575451        0.39345642614402        0.57828220480470
C           -3.48786651435972       -0.91544459075366        1.05156462358607
C           -2.41657158810321       -1.71436249195052        0.79025965159686
C           -1.36529069287654       -0.91808971079839        0.22506141615495
C           -0.16607993843446       -1.46152773512690       -0.17432914998045
C            0.01493353486662       -2.84397557255560       -0.42396521940288
C            1.34223184464905       -3.08548990893750       -0.67742473857261
C            2.07103097298217       -1.88596210720244       -0.51664490437712
C            1.19882749113235       -0.85250203868083       -0.24887658243606
H            2.84190641986000        2.59533286817818        0.67905390691582
H            1.56984652090463        3.69883266728133        0.31340188977863
H           -0.06614095419743        3.10183157941655       -1.02364569816410
H           -2.07504513037970        3.11507357798568       -1.77521521803693
H           -3.24353971230224        1.91694982501011       -1.39349155533218
H           -3.88004226650310        1.22506314549856        0.64125258145726
H           -4.40581407147626       -1.20712249622186        1.52910545849709
H           -2.31618809072823       -2.75136454901768        1.04535519824388
H           -0.78176577473626       -3.55936695138629       -0.49156224190346
H            1.77114481940396       -4.03105806280976       -0.95890189361831
H            3.13647500340611       -1.79244969412654       -0.61753997221483
