29
 energy: -51.155538567430 gnorm: 0.000752972160 xtb: 6.6.1 (8d0f1dd)
N           -4.86256875058534       -1.49166056116732       -0.46476450312400
C           -4.01451937966021       -0.72139776516893       -0.36343219483384
C           -3.00160825057526        0.23016937972357       -0.25207704292240
C           -3.13848248035053        1.62615469830011       -0.56577168899587
C           -1.97003823995594        2.27292074071818       -0.30578191279192
C           -0.98155198765706        1.30626590924251        0.06455527192759
C            0.36625647086769        1.53047448616337        0.11763425790214
C            0.90194118013642        2.87334072836357        0.23184460500171
C            2.24722126270182        2.80646990311419        0.31474129038321
C            2.64874275151659        1.43272874991596        0.14906469683982
N            3.96503719885666        1.06030611626031        0.12421879437932
C            1.51497637491546        0.63506386096911        0.02768207999700
C            1.60738322267999       -0.75426509692121       -0.35803091674765
N            2.66046526451747       -1.04516954892322       -1.16712770684162
C            0.88898761600169       -1.82908859968645        0.16033624313570
C            1.40405180746653       -3.11613816405707       -0.07572834194824
N            1.85173660181224       -4.15720041394027       -0.27367213900929
C           -0.28623185402372       -1.79675792026984        0.97855116011093
N           -1.32088575568681       -1.06881180918311        0.84976768564012
C           -1.70274195330884        0.00806687446030        0.19026754602155
H           -4.04711143423361        2.06626376515717       -0.93585724217036
H           -1.78737126999797        3.32078139790582       -0.44284481191100
H            0.29629743084368        3.75167988526619        0.33548201872967
H            2.93366378330174        3.61765518742271        0.47454697540199
H            4.17967315917901        0.09558860227656        0.32441166583399
H            4.61435807476030        1.72841142570919        0.50821427599995
H            2.78281924712145       -1.99004749395894       -1.49333029483124
H            3.14388381265884       -0.30375358053882       -1.64168728863459
H           -0.37907490689897       -2.58911645905542        1.71842059685431
