28
 energy: -50.651786135639 gnorm: 0.000707133119 xtb: 6.6.1 (8d0f1dd)
N           -4.40757026113024       -0.04471419224137        0.44721383641052
C           -3.28399844478794        0.04509638942596        0.21917038371845
C           -1.90887881880773        0.24807047005626       -0.01138013479029
C           -1.43432166052542        1.56366973331841        0.28409712263966
N           -2.18178780774081        2.31775887230303        1.11930843399333
N           -0.44265169434692        2.18408136559525       -0.30458643474400
C            0.79059736109863        1.95410978753904       -0.63465753788024
N            1.36463162024235        2.82208087416489       -1.48774013638566
C            1.62569116638459        0.94617640150019       -0.05398832803534
C            2.95286288920760        1.09061027053097        0.31084765710042
N            3.49761230600432       -0.05414942270030        0.78299755085821
C            2.57170361245254       -0.98826298866089        0.65516690151132
N            2.79354049355233       -2.26729060128454        1.03803923649277
C            1.32396414870305       -0.45757554973179        0.11640944446087
C            0.25693809492937       -1.21691531032281       -0.32007720034575
C            0.28636015824371       -2.59267515732982       -0.62231888819183
C           -0.99448210016583       -2.94606809540001       -1.00012501234019
N           -1.87821922884554       -1.94309576966968       -0.85829336632640
C           -1.20128136189809       -0.86844768682940       -0.46830899005353
H           -1.95629214118603        3.29152365311204        1.22740262825399
H           -3.08294879231888        1.98436615058144        1.41980986023558
H            2.33742288019775        2.73029134247072       -1.71707373836023
H            0.82512326295939        3.57851541354379       -1.87094239459629
H            3.53590825139214        1.99463262360079        0.31218786293335
H            3.62304700524065       -2.41522728841745        1.58972006771659
H            1.99531916469076       -2.84992211830050        1.22992250691793
H            1.16225072537972       -3.20444705047742       -0.71362077217285
H           -1.32485199502510       -3.89613191607692       -1.38203299962002
