31
 energy: -54.615893572637 gnorm: 0.000937587003 xtb: 6.6.1 (8d0f1dd)
N           -4.89416643568954       -0.20242721592374       -0.48720285974361
C           -3.79229669875585       -0.51946157075949       -0.38339055456903
C           -2.45276747576539       -0.86757935235966       -0.22650839629662
C           -1.91084505407362       -2.13602612796160       -0.27935613347572
C           -0.52208916959370       -2.05631162180424       -0.05443096031033
C            0.30208944519152       -3.17043188486120       -0.19863684808456
N            0.94528719920829       -4.11750086443193       -0.33062879503394
C           -0.13548212417240       -0.69949892193286        0.10676059679882
C            1.16489584288711       -0.25918303600710        0.33785368783230
C            2.23963152513757       -1.08540773533763        0.82567128095391
N            2.11592013098524       -2.13640955256125        1.68969712253332
C            3.44719000696113       -0.49290592424440        0.48082013668566
C            3.18609940595660        0.68750385776307       -0.21641055304123
C            1.81315637820428        0.92296053605344       -0.24354626949146
C            1.22998576809174        2.09827587521542       -0.76367763795924
N            1.83949769236404        2.72746678373968       -1.79152063887326
N            0.26157396557605        2.77858328665885       -0.18372929790296
C           -0.82731276330528        2.51679924949924        0.46323038220827
N           -1.29484729219561        3.48690113658223        1.27775948221192
C           -1.69160949513391        1.38416190457237        0.27052452819452
C           -1.39474531621607        0.08483217938333       -0.00193102518978
H           -2.44745182017304       -3.04613837581871       -0.48139006021692
H            2.90667332016809       -2.75832753554467        1.74308311984162
H            1.22432442527123       -2.60009047553513        1.74686487174819
H            4.42016617256734       -0.88139258771716        0.71624389950045
H            3.94094117833552        1.35729848059237       -0.58928111226132
H            2.67646338206054        2.34101210001087       -2.18753443868454
H            1.54920622474018        3.65446477150398       -2.04822695518276
H           -0.76283990010176        4.33090191917613        1.39627177547713
H           -2.20037734069335        3.40829835016949        1.70348625926575
H           -2.74822216493765        1.61328638778145        0.36646679416593
