30
 energy: -54.114728576595 gnorm: 0.000341288797 xtb: 6.6.1 (8d0f1dd)
N           -3.77694133781829        2.72188982858117       -0.90274804830537
C           -2.77781560176964        2.26388711024568       -0.56418479117252
C           -1.55091971808578        1.70951295676726       -0.14535260656430
C           -0.47309988461967        2.55941849750994       -0.21627736250016
N            0.71827316124918        2.50377847956839        0.35020308007763
C            1.63397204488555        1.62249484571893        0.55042552887774
N            2.69138692488725        2.04322921583296        1.31452081691926
C            1.75168498020402        0.31004564680308       -0.02553683794367
C            2.95977720711865       -0.34580558516982       -0.30268856441173
N            4.21050828860015        0.18312669901420       -0.30144762122528
N            2.80304655544314       -1.67265706827191       -0.57984111744378
C            1.52002820612771       -1.92423098442370       -0.42440814532024
N            0.94709490353006       -3.10701217786186       -0.59008939495098
C            0.74244322995970       -0.70561787422721       -0.10027285500616
C           -0.61073817925378       -0.74793948663269        0.11660127905294
N           -1.23435062693755       -1.97388149237866        0.25214745651003
C           -2.51475707234348       -1.73746138829619        0.45606862999459
N           -3.42039925967865       -2.72283899015677        0.63048643384906
C           -2.81451347292213       -0.33693609928655        0.41611915994576
C           -1.62815848674060        0.31513111691225        0.20620541542259
H           -0.66464548104159        3.53087782136914       -0.67029360800355
H            3.28180611893160        1.34307908396086        1.73048785983866
H            2.54149686300550        2.88962482796165        1.84023631942728
H            4.91058930825224       -0.38569275710063       -0.74968004743241
H            4.29339375016920        1.18055959499695       -0.41294254070807
H            1.50743706765813       -3.91037817628068       -0.81266803898782
H           -0.04698818681264       -3.12358854318703       -0.33173616314658
H           -3.08890150320896       -3.65989138055019        0.77832215946501
H           -4.34201572634813       -2.48540385581551        0.95041566779105
H           -3.79047307274172        0.09671993529596        0.51715646135060
