32
 energy: -59.139339613135 gnorm: 0.000545490643 xtb: 6.6.1 (8d0f1dd)
N            5.25029766899117        1.26483760576364        1.01155795463670
C            4.15857228777775        1.10732104878099        0.68578123277726
C            2.83288862942025        0.90439106315584        0.30216906125659
C            2.02505267203364        1.81696973798254       -0.42698770548547
C            0.74671249614332        1.31472500450508       -0.52855040765271
C           -0.32238059205499        1.96356931025244       -1.23932711359106
N           -0.01499806631360        2.59765068226355       -2.38411410057003
N           -1.52329590681038        2.12030336737583       -0.77813851659012
C           -2.28345068398005        1.56052380354447        0.13148979434863
N           -3.03107469727827        2.39931035486458        0.87850811483578
C           -2.53070208375076        0.15844374686623        0.24729519637530
C           -3.78631557351762       -0.17447671159398        0.78729906852992
N           -4.81849594448587       -0.40073225224730        1.24345892493548
C           -1.71119611344443       -0.91861607939949       -0.12639383084540
C           -2.20513889993174       -2.21801308423739       -0.24387845107006
C           -1.14891796619332       -3.10627060896947       -0.38269701740983
C            0.06109058793772       -2.40728719761770       -0.27329772713635
C            1.30265360674246       -2.99606360985603       -0.50688397850328
N            2.31389949044899       -3.51265927548257       -0.70045496106700
C           -0.21714380769286       -1.01674730973260       -0.13592423280349
C            0.73659285748235       -0.02846381686724        0.03065611072970
C            2.07424302572224       -0.23443428664691        0.57135003827625
N            2.45009534365743       -1.22919520685824        1.40482989025529
H            2.36412328421398        2.77115700242372       -0.78844426367729
H            0.92019528265828        2.55886586799637       -2.74683744797115
H           -0.71897637293456        3.12649667841849       -2.86901185662970
H           -2.96969253355973        3.38816103551531        0.70838845175121
H           -3.79247546124052        2.04073036103594        1.43047508566995
H           -3.24729337982223       -2.47592966707212       -0.25877823643579
H           -1.22820824088789       -4.16249448832373       -0.56788129278942
H            3.42773350754933       -1.28092903392772        1.64278812693505
H            1.93842892822385       -2.09517442901337        1.41648119082105
