24
 energy: -43.764747112649 gnorm: 0.000889236637 xtb: 6.6.1 (8d0f1dd)
N            5.30454010055774       -0.29163777416477        0.67029709383833
C            4.17062228122654       -0.28309836963878        0.49039129680811
C            2.78701494358868       -0.29307069770335        0.26922890049066
C            2.04059197314251       -1.43082809515466       -0.15733713566080
C            0.69911987869730       -1.11192569937429       -0.21944170072282
C           -0.23390065236926       -2.08874244406320       -0.66175099508492
C           -1.57364022369047       -2.23790106904590       -0.53576788237431
C           -2.51394390058221       -1.35664933753889        0.11321690774692
N           -3.47006155444120       -1.93562922881061        0.86648411097938
N           -2.62187982887172       -0.08276210898642       -0.07302914996687
C           -1.90446398800198        0.96450105967118       -0.29553333031507
N           -2.41994840150334        2.13796807599599       -0.66543786050113
C           -1.43492619920598        3.01469548988203       -0.44420461295383
N           -0.27911534321541        2.53960190144623        0.00089539031349
C           -0.44534160990835        1.20639562194488        0.04099051115398
C            0.59884107821211        0.31601582934838        0.13776223010794
C            1.91775611364409        0.76770626428489        0.41433783593867
H            2.47163726510613       -2.39004447516870       -0.38083780221902
H            0.26799200744046       -2.94275140661907       -1.10737916586800
H           -2.00217504614994       -3.17218305585506       -0.87628392839450
H           -4.18119670304390       -1.35916383687892        1.28373759359812
H           -3.51178229595891       -2.93264694996945        0.97573016154328
H           -1.57828993819918        4.06597483707956       -0.61955270352133
H            2.15628939092582        1.77548603181940        0.69252738836225
