28
 energy: -45.837779169369 gnorm: 0.000469164294 xtb: 6.6.1 (8d0f1dd)
N           -4.28703308749474        1.23308427208378        0.48492874596036
C           -3.08259164573976        0.62881553308790        0.26723240250481
C           -2.93142653649927       -0.74383016585648       -0.13038726145537
C           -1.60311172050113       -1.04954433194443       -0.22496523815019
C           -1.14580468255427       -2.29415603880980       -0.75889469140959
C            0.05587362117654       -2.91196655659845       -0.65687564374146
N            1.06867111998109       -2.73175719395185        0.20537784154855
C            1.72411059392449       -1.71449111994928        0.59717959067993
C            1.65941375200898       -0.35583762283992        0.16865675653188
C            2.73712257353601        0.53246931562039        0.20281200087164
N            4.03527322737203        0.26104681677777        0.49483863320070
N            2.37773304341537        1.81555451688114       -0.11090120304788
C            1.07018767277789        1.80344693883838       -0.23910379929183
N            0.38689468016120        2.91269850174878       -0.59850591310284
C            0.49361204858337        0.46245369695990       -0.05897537473977
C           -0.85602361376600        0.20897120368866        0.03334196224833
C           -1.83584551251350        1.20390958932875        0.31818185782094
H           -4.28009558442834        2.10674584459526        0.98543601397768
H           -5.07545895620460        0.63335727568933        0.66328193184150
H           -3.75039074164221       -1.41967896977665       -0.30036155877455
H           -1.90044035842340       -2.81931919230642       -1.33419334016427
H            0.19281829069241       -3.82773550428971       -1.22813656667001
H            2.49041091529650       -1.93655626847502        1.34155216472074
H            4.35338054549726       -0.68944730267695        0.42144391642921
H            4.69343695229815        0.98773030496826        0.26990188517861
H            0.95023041007013        3.67922152983621       -0.93004652141836
H           -0.52467041675937        2.78642859394417       -1.00702136575260
H           -1.62527296406485        2.19649056902627        0.66865567680411
