25
 energy: -42.698787731453 gnorm: 0.000620054037 xtb: 6.6.1 (8d0f1dd)
N           -0.23512276256950       -3.04775523650502       -1.31604178854443
C           -0.20377162429144       -2.08005720119032       -0.37179506387868
N           -1.36408129585436       -1.53865300653698       -0.06016778638127
C           -1.72498880668836       -0.33539955997572        0.24655536093089
N           -2.96566171079647       -0.07582893354566        0.66887297677749
C           -3.13494648181582        1.24308456607107        0.53142996038839
C           -2.02134058901984        1.91422300323693        0.03133879844088
C           -1.00343347806348        0.96794772099400       -0.08264074631794
C            0.34250028549209        1.19938836308790       -0.32465377324387
C            0.84664981483454        2.45001294709635       -0.78852426554093
C            2.21321560295581        2.43757226260979       -0.72193881613354
C            2.62407548064922        1.20923989628353       -0.15494225664198
C            1.51240125521595        0.41694567845597        0.06532902396781
C            1.57332907433173       -0.87897301510661        0.68442788908647
N            2.51706260997895       -1.06323986271567        1.62766366119480
N            0.91986594840692       -1.94157158358857        0.30756514372619
H            0.55707498717337       -3.65882837339863       -1.40729396712610
H           -1.13430708254648       -3.35697075025308       -1.64204379797449
H           -4.07594721744308        1.68638850907907        0.81177362573110
H           -1.94450299574587        2.97161427314001       -0.12634624575406
H            0.23282336828034        3.24724584679124       -1.16183458994682
H            2.87600375454653        3.22484010906984       -1.03279527318322
H            3.64702807214549        0.92311829949960        0.01791994287928
H            2.64735048588099       -1.97755279797696        2.02286215642243
H            3.11285349144283       -0.30366074302220        1.90120935692157
