25
 energy: -47.516828299252 gnorm: 0.000418534844 xtb: 6.6.1 (8d0f1dd)
N            4.82839627115531        2.16177852305185        0.21487289234347
C            3.82358747971732        1.60655009440878        0.16999747269095
C            2.61001947499770        0.91262263465604        0.10561087474184
C            2.48291771039399       -0.47575278922538       -0.18127106614116
C            1.15000499697356       -0.82254625304084       -0.11497893613118
C            0.64602025611943       -2.13045549379105       -0.46577121409236
N            1.26383926178489       -2.77790312317112       -1.46759425083958
N           -0.24252260708845       -2.79088305925823        0.21722350348174
C           -1.24347627711781       -2.42905741313062        0.97299592340990
N           -2.15602389421425       -1.54270120302398        0.72295044673814
C           -2.13567974345036       -0.36065556227572        0.18999550062654
N           -3.22668169718801        0.30598522509026       -0.16272063730162
C           -2.81818849214250        1.58676323051366       -0.26680783599300
N           -3.65721705666105        2.56710042593833       -0.57877098620136
N           -1.50373632333410        1.82280257414297       -0.05178443699061
C           -0.97115676083027        0.62595767649546        0.15972655492947
C            0.39807135995176        0.38878516950314        0.18702736449460
C            1.34236322439845        1.43897302898528        0.27908226272697
H            3.31036775256216       -1.13671904042669       -0.36926932367078
H            1.00572337458423       -3.72757545614478       -1.67522690574287
H            2.06237556582643       -2.36776627964785       -1.91876379445380
H           -1.45962253448218       -3.09250971504931        1.80736749490369
H           -3.32150885044816        3.51356585249965       -0.60036582538929
H           -4.62209468899233        2.34926695622873       -0.75319590003996
H            1.08681340718419        2.46044531447149        0.48166847910029
