27
 energy: -47.707320085180 gnorm: 0.000591380734 xtb: 6.6.1 (8d0f1dd)
N            4.93118315122320        0.85105301659762        0.52153343286344
C            3.83403221839408        0.56378806462725        0.34028325060734
C            2.47291457009303        0.22406731120548        0.12656350438929
C            1.66916764795105        1.37755421484921        0.05634134749950
C            0.33746674260903        1.65135746817079       -0.07800711995580
C           -0.08715181717636        3.01069414705687       -0.21084424292271
N           -1.38773354316507        3.12478433614874       -0.33292396118392
C           -1.90425135693852        1.88265408626337       -0.24148587489943
C           -0.93011017385904        0.89583746274318       -0.08951581478486
C           -1.21985788792087       -0.47309230273248        0.02223887469673
C           -2.50311399852469       -0.98777902119511        0.18896439963039
C           -3.69790408306194       -0.33193841002376        0.49661332887344
N           -4.72057468651896        0.11136080438346        0.77967376005335
C           -2.46830189084556       -2.41519304995725        0.04318069260526
C           -1.19353106336718       -2.80058406564865       -0.21391873226315
C           -0.32772847196612       -1.65401641577776       -0.16934036858489
C            1.01402831631615       -1.87273804325047       -0.23109176286117
C            2.22791233225338       -1.14971637471740       -0.02777535218615
N            3.31934203679352       -1.95383711278876        0.00739645713235
H            2.27207923147446        2.28223251998928        0.11447763861519
H            0.55656337351321        3.87101974091121       -0.24393410473894
H           -2.96507824723492        1.74619279460839       -0.32141682535739
H           -3.33440403566844       -3.04592851360969        0.12928467897781
H           -0.84856108940826       -3.80736588205211       -0.35794489129508
H            1.23397589772266       -2.92481291718474       -0.40445406637996
H            3.23047024142921       -2.95062141308640       -0.07969963130542
H            4.23545062738300       -1.56417720383041        0.15905105797470
