30
 energy: -54.891093147269 gnorm: 0.000777348196 xtb: 6.6.1 (8d0f1dd)
N            0.61180105456554       -4.93632739103008        0.26946335411748
C            0.34610256993516       -3.83464004053705        0.06714617432596
C            0.02863099399381       -2.48538872672395       -0.16604073581582
C           -1.07295347433376       -2.29196371685226       -1.05672966386333
N           -2.02148828689250       -1.44263358501248       -1.00131298969903
C           -2.29712908274232       -0.32346011561007       -0.36134329080782
C           -3.55057603863054        0.11934128261144       -0.01270768925343
C           -3.40666223163821        1.50790503482326        0.27555055397043
N           -4.38689114382675        2.34440317792427        0.63021333739364
N           -2.14509985707478        1.93863725646829        0.15071439082504
C           -1.39994481012301        0.86128653804091       -0.13743447381460
C           -0.02096545272164        0.90206863383917       -0.10556236231927
C            0.65296438270378        2.15553688609700       -0.13418922669965
C            2.00774350958271        1.93025207941428       -0.09599354376438
C            3.04503717513752        2.85918864989369       -0.20162775858315
N            3.93820621246956        3.57767337170110       -0.29218351555166
C            2.22582691488772        0.51418899739241        0.05917168736963
N            3.48667634257733       -0.01852483954559        0.19056039776895
C            0.99185717261596       -0.13554861270018        0.05694324903204
C            0.87317928503261       -1.52848772147867        0.40397262693125
N            1.82749081033567       -1.98558782348906        1.25268166378214
H           -1.21020093859815       -3.06326373681807       -1.81335459746745
H           -4.46589078480587       -0.43680919607646       -0.01611907661703
H           -5.32420989318612        2.01307233837268        0.76767084187017
H           -4.17079170692134        3.31692490207024        0.76023169217247
H            0.14989549690180        3.09613079147420       -0.23813922146662
H            3.61062620802676       -0.97353788603301       -0.11116140436519
H            4.23331471015999        0.60221105296870       -0.08765727156820
H            1.82139794998737       -2.95161750016010        1.53550990702624
H            2.42721257268093       -1.33751063332339        1.73137581377126
