24
 energy: -39.750848895730 gnorm: 0.000871509734 xtb: 6.6.1 (8d0f1dd)
N            4.32223330060567       -0.73442703840947       -0.00182046334504
C            3.17527899264942       -0.71193303772376       -0.00080057479533
C            1.75144992579849       -0.73401376089388       -0.00084254788252
C            1.26816722795679       -2.03489830025188       -0.00135459488836
C            0.01055313014857       -2.63642564105877       -0.00120975774504
C           -1.29412648911744       -2.18647359985996       -0.00035428711645
C           -1.93480324872272       -0.94862047299944        0.00055301868377
C           -3.32296388676674       -0.88486900297673        0.00130157748697
C           -3.74367422669745        0.45917993981339        0.00199446745490
C           -2.63694289017065        1.27034194551725        0.00167875228652
C           -1.46348815421209        0.46661684091729        0.00081697550109
C           -0.22582774601126        1.06211181189139        0.00048852389086
N           -0.19716208610776        2.42588834871573        0.00091414280531
C            1.06285928307415        2.79816620954719        0.00067967122718
C            1.95350387832795        1.70695692864909        0.00009183062760
C            1.17910935071716        0.55727642569427       -0.00013552191244
H            2.07389070271539       -2.76477311293073       -0.00197002003451
H            0.08081386091983       -3.71902611633441       -0.00185156779095
H           -2.01594517194252       -2.99883886187185       -0.00039480294389
H           -3.97801000416932       -1.73723044256178        0.00134069762250
H           -4.76826802666489        0.78486429890659        0.00265776082556
H           -2.60847310249184        2.34170131211201        0.00204084654357
H            1.32401239252797        3.84199372579952        0.00094552242931
H            3.02423788503329        1.76591450100892       -0.00018437543059
