30
 energy: -50.091190248217 gnorm: 0.000786843287 xtb: 6.6.1 (8d0f1dd)
N           -4.30724232534539        1.51850290172532       -0.60340083711778
C           -3.40328052885869        0.82963396775553       -0.41119101800832
C           -2.35092939340889       -0.04889165512745       -0.19121966807359
C           -2.47803743091914       -1.47148434900610       -0.14653349131788
N           -3.62908377794719       -2.13079598295466       -0.36028180988514
C           -1.22962373245954       -2.03267635304110        0.13417493093968
C           -0.26989351979962       -1.02279748071323        0.19988408166105
C            1.10251102586830       -1.21041301778546        0.30939516680470
C            1.66594942826718       -2.44830180201965        0.73049350011754
C            3.02946409866090       -2.37598136594449        0.63901932306167
C            3.37039470718013       -1.12653398666115        0.07932286201477
C            2.22262984829998       -0.37298704005314       -0.10986094388176
C            2.28365974553805        0.91369243652303       -0.75458889203174
N            3.33804232853854        1.05830103970398       -1.61126277770443
C            1.56978571763160        2.05093016604687       -0.45962317365077
C            0.44431422146859        2.20154861972592        0.39445693415330
N            0.37905867707426        3.32495206072430        1.15500972943682
N           -0.63237320278438        1.47350777290093        0.40021741181353
C           -1.01152742890332        0.27175179854075        0.07605105902868
H           -3.67424211979206       -3.12829459245766       -0.25656770769563
H           -4.46979879855928       -1.61601453875375       -0.55645910479568
H           -1.03940943333540       -3.08650738946855        0.20217877257104
H            1.09788082098374       -3.27019993546621        1.12281252998322
H            3.73316381418712       -3.13178568960443        0.93862266432822
H            4.37825183463910       -0.79663237508442       -0.10214265269286
H            3.80495882714373        0.23652940616917       -1.94821826809160
H            3.42857015159865        1.90525597223470       -2.14361875016509
H            1.95383686669338        2.97617608173073       -0.87517085244019
H            1.07722677504960        4.03923277487033        1.06548613692301
H           -0.49279248271722        3.54730876977959        1.60309568741841
