26
 energy: -48.012791146632 gnorm: 0.000662553787 xtb: 6.6.1 (8d0f1dd)
N            5.57070300231749       -1.60788187010450        0.00969432519414
C            4.54074540935241       -1.10098925521135       -0.02584038306658
C            3.28373114590836       -0.48507983965479       -0.06691104666862
C            3.02426306738085        0.82502789181699       -0.51059401322776
C            1.67014847301065        1.09781172285332       -0.33434337766051
C            1.11125456746978        2.34404351868366       -0.68275065831170
N            0.15484065125728        2.97474322497602       -0.09129295179715
C           -0.80369120377122        2.60283000210481        0.71387309971603
N           -1.64112573700723        1.62591045465560        0.54582850851497
C           -1.53241112658895        0.40519104077290        0.11811625422920
C           -2.62723775802904       -0.41479397517881       -0.19206136886318
C           -3.94674244993498       -0.02534813164812       -0.41278317024793
N           -5.04862040657582        0.23425353681134       -0.61523433168549
C           -2.18371221731992       -1.76652420648617       -0.15893433249139
N           -2.96555736808651       -2.82776727658261       -0.36783444374349
C           -0.79786789112403       -1.78985958263626        0.10967176048283
C           -0.31690015991080       -0.49607621243974        0.19414975394700
C            1.03846973733620       -0.13039348143056        0.17145626802285
C            2.07271583318275       -1.07229219526746        0.30435011835562
H            3.75975922840841        1.51745139883478       -0.87559931109522
H            1.64562609647975        2.92962076888321       -1.42607460152492
H           -1.07051342966478        3.31936887181766        1.48697653803618
H           -3.93964367763089       -2.69789915707706       -0.58696409991164
H           -2.59950454828150       -3.76074818455359       -0.28872154841376
H           -0.21294370137356       -2.68845056956511        0.15081856478711
H            1.96021060070278       -2.08092338167108        0.65332246192532
