31
 energy: -53.810141994040 gnorm: 0.000804366206 xtb: 6.6.1 (8d0f1dd)
N            5.07350106858620       -0.53460761520935       -0.29312962761895
C            3.93897162602707       -0.40598828011121       -0.13743494288876
C            2.57190032393896       -0.21872334109022        0.02856428748283
C            1.91934453947417        1.05378948497976        0.03258607502365
N            2.63498873950423        2.22721605197217       -0.07257645448075
C            0.53962947088926        0.88037920146650        0.16296029607970
C           -0.33737526529789        1.96106409121605        0.47839072025986
N            0.29393211045588        3.03463014098008        1.05188289306647
C           -1.68595547579204        2.17399257306390        0.22338413834300
C           -2.72201010644392        1.47170339713534       -0.40821784516717
N           -3.77931145270613        2.24772806196847       -0.78250496672726
C           -2.91485393040078        0.10467116101179       -0.65046571357144
C           -2.22401059644765       -1.03467197315500       -0.30336838933016
N           -2.85735259895687       -2.21745029164703       -0.43898629273851
C           -1.96969176589584       -3.13477860224493       -0.06896398171710
N           -0.76974544089423       -2.69647817803103        0.26671818502034
C           -0.83500351127471       -1.33400395716430        0.13758335530784
C            0.30005404416545       -0.56748689132645        0.19839676985536
C            1.60440206490106       -1.20687818170883        0.20278566086888
N            1.79314224378984       -2.52378266267264        0.32305498622947
H            2.15296675509872        3.00600927334223       -0.49540816412212
H            3.58023299205558        2.09890106390594       -0.40588638970564
H            1.18969024261699        2.88467889683638        1.48465809628004
H           -0.27161732169221        3.77700083468691        1.42761627137641
H           -1.99662244916845        3.17771593413843        0.50638558657284
H           -3.79422784240307        3.23091943102005       -0.57835432703479
H           -4.62272979200315        1.81835947058173       -1.11908919457238
H           -3.87361816862980       -0.13748343039792       -1.09680908404086
H           -2.21323074903826       -4.18295116033900       -0.04685430668604
H            0.92414346740181       -3.07014844632070        0.34150731435554
H            2.69694646573827       -2.92133801138697        0.13271147107814
