30
 energy: -54.887850191683 gnorm: 0.000819396622 xtb: 6.6.1 (8d0f1dd)
N           -4.98364007179422       -1.47126604937814        0.45301380944082
C           -4.07976333534571       -0.77222767093814        0.32786699036613
C           -2.99740568426684        0.09539104316462        0.19450451460692
C           -3.01436012154338        1.50232328448512        0.43398588719982
N           -1.86426498010683        2.07490288371689        0.20670381631925
C           -0.96736296339321        1.06957997343888       -0.10974094055616
C            0.38407646356411        1.27279056584027       -0.08175990596703
C            0.92671475145152        2.65465767283798       -0.08723609716204
N            0.13393420609002        3.72429710532801       -0.05534523447690
C            2.28950664512109        2.57561171915333       -0.20106359781551
C            2.66259164578558        1.20935342200474       -0.14753086850978
N            3.95589553979189        0.80707450016621       -0.21334702634910
C            1.51548157377052        0.38454621973735       -0.03987795613809
C            1.62144622039746       -1.00807431928711        0.30503689098678
N            2.75249560314442       -1.32925267287274        1.00788908422012
C            0.84932651432354       -2.08526768846723       -0.13306030347496
C            1.34167299677384       -3.37582234769667        0.12196622812726
N            1.74611417553684       -4.42866400540871        0.35345382326250
C           -0.32107416752767       -2.05198426982377       -0.95813745235942
N           -1.33731213573297       -1.29409971380924       -0.87581027287696
C           -1.70296088148202       -0.20054142066138       -0.23923065826940
H           -3.87094632436440        2.07576797844790        0.74241989159254
H            0.51260134555842        4.64955435118483       -0.14831607548518
H           -0.86495901834887        3.52789229944451        0.05424610114796
H            2.97551275343023        3.39485497149731       -0.30131753592635
H            4.14907467398509       -0.15916976156128       -0.42319485003607
H            4.62825086659778        1.48310855801632       -0.53612371259728
H            2.83995311118957       -2.27572813553591        1.34399445730564
H            3.20559071637652       -0.60817059110238        1.54204781263169
H           -0.41218875927529       -2.84969523122230       -1.69294875600809
