31
 energy: -49.795486119669 gnorm: 0.000685223301 xtb: 6.6.1 (8d0f1dd)
N            4.71600823677950        1.97845751807541       -0.24705409837742
C            3.74194264635864        1.38003956541308       -0.10736825885898
C            2.54770813427180        0.68030362527688        0.04288426893185
C            2.41230732999234       -0.70796631767007        0.25406738531219
C            1.06837880004670       -1.05117931649161        0.22163259358537
C            0.65248955910180       -2.39108162631911        0.45049580926657
N            1.50756445686009       -3.13453145113839        1.20405304567544
C           -0.40073451293965       -3.10748545915971       -0.12562227228338
C           -1.52094868591848       -2.76845045360992       -0.86575432886848
C           -2.27030404324714       -1.61451001771702       -1.01431787087650
C           -2.20169193450808       -0.34412368743482       -0.44902687764814
C           -3.31563904810584        0.48579651082905       -0.41680873541283
C           -2.98044765635056        1.68862983662538        0.22943743632876
N           -3.82769615735936        2.71238678105717        0.48748876444325
C           -1.60430050035850        1.67264641636535        0.51256444143280
C           -1.06684264270293        0.45285711564463        0.11474401423194
C            0.30513978491463        0.19472230478312        0.06276129067234
C            1.26427712238648        1.24098449304726       -0.02782257149940
N            1.01897889783583        2.58527888170165       -0.21485421092840
H            3.24984241133871       -1.37932762812518        0.32107702889980
H            1.37382906505098       -4.12401781535621        1.30840468557019
H            2.30404262291427       -2.70268290959233        1.63382192311560
H           -0.28068109251238       -4.18115993993820       -0.00530526240584
H           -1.97811611764417       -3.63029224630222       -1.34283327219887
H           -3.18671044561843       -1.76515326698285       -1.57762408912516
H           -4.29781056347239        0.22232754106492       -0.76415264606714
H           -4.81665816266938        2.55886250885081        0.39241089009473
H           -3.52949796246754        3.44264718415339        1.11097955691996
H           -1.07969485530357        2.44473992299647        1.04136722445480
H            0.14522531228208        2.79428153478483       -0.67815679002930
H            1.81174839204460        3.09479813026901       -0.58057553545568
