37
 energy: -71.338708371481 gnorm: 0.000365750378 xtb: 6.6.1 (8d0f1dd)
N            5.50418931416197        1.73940709097473        1.44226508263281
C            4.47339481286446        1.40958413474331        1.05613916340555
C            3.24821365554874        0.92872283985935        0.58701418322672
C            2.06123726278982        1.60259738395222        0.44634772838100
C            1.05202904366412        0.67452690822517        0.04234457964214
C           -0.26200885442918        1.06283583871253       -0.16548288978151
C           -0.65946005676449        2.39260436824449       -0.46994335143160
C            0.14755626040600        3.46834320369058       -0.84190904960059
N            0.74382518518196        4.39691889326028       -1.16700905476646
C           -2.06186610730617        2.46138085276797       -0.47357472176821
N           -2.81869058041890        3.51694444957839       -0.78251703551423
C           -2.56360908728359        1.17061883976853       -0.09000928577228
C           -3.93138063514662        0.89990283819060       -0.00874705549598
N           -5.07148303536388        0.75295928766013       -0.01761363505634
C           -1.49385578498970        0.29522662696371        0.07476300695262
C           -1.66309239683363       -0.98921424730208        0.66424672084650
C           -2.74873596592413       -1.05730480767946        1.56784630531587
N           -3.57588039263118       -1.13618187798092        2.36191541111425
C           -1.02068387589731       -2.20309684798893        0.41542222054442
N           -1.48501498098820       -3.30513103870693        1.04735826700506
C            0.01092661918942       -2.45856005867346       -0.56179735364924
C           -0.15788917341088       -3.68159198401652       -1.23986359027927
N           -0.29138443736850       -4.67669915226078       -1.80267514828897
C            1.19884739811206       -1.78121099389701       -0.80810460509765
N            2.07290794602222       -2.33896299554448       -1.68294656645870
C            1.69616254000242       -0.61251579262899       -0.12972502670365
C            3.04332680346656       -0.44249846642814        0.17566475047077
N            4.06036239558992       -1.35002861293878        0.11204083291069
H            1.89068811815030        2.63369161317404        0.68702626024860
H           -3.82219200981313        3.44314835964195       -0.75936651590692
H           -2.38922460849024        4.38846974974789       -1.04475444482002
H           -2.31926695342238       -3.24575810272338        1.61017542607154
H           -1.15744346559075       -4.21651833213020        0.77301786828674
H            1.79290024623060       -3.13793803226549       -2.22879159960237
H            2.87311068291222       -1.81043914370406       -1.98327573420060
H            4.90940612878635       -1.09966283029773        0.59512197403874
H            3.82410031159515       -2.32930183498525        0.11883927450241
