30
 energy: -55.686061305907 gnorm: 0.000993560987 xtb: 6.6.1 (8d0f1dd)
N            4.74297820037166        3.04800972291388        0.35734070751753
C            3.83525055904115        2.37472848224562        0.15454744354756
C            2.73012965984614        1.53414771614236       -0.08820414329202
C            2.93757581689435        0.48795496400922       -1.03102735925822
N            2.40705867450568       -0.66958031521339       -1.01769360963042
C            1.46994834915804       -1.35964392913932       -0.42255686202670
C            1.60889672799110       -2.68769676567132       -0.06138397683351
C            0.32937291448562       -3.22855245734990        0.14758727509139
N            0.04659053350303       -4.48387692562898        0.50496754832218
C           -0.65465515298221       -2.21988870391349       -0.08963117477614
C           -1.99582957045479       -2.51851014452542        0.10325132310907
N           -3.07862725048991       -2.88045770202841        0.27226216675358
C            0.01244523044717       -0.99802015237807       -0.33375582432743
C           -0.48118721080544        0.29294514827106       -0.27586923086300
C           -1.87570740896420        0.63193204778237       -0.35295427091438
N           -2.84540241552026       -0.04902650150825       -0.99041689339024
C           -2.05693753646235        1.91494062805111        0.20213848599810
C           -3.28309111381889        2.57908357090704        0.28678565765780
N           -4.30638476953873        3.09833838287760        0.34999327467441
C           -0.80994490968825        2.39207019706901        0.62238947646415
C            0.20155267675884        1.49457130642164        0.26648151040598
C            1.52370989479432        1.88631965891137        0.49471171474322
H            3.69332288897973        0.64435101864131       -1.79692531926233
H            2.53463114713753       -3.22476968265579       -0.00021253776167
H           -0.91153104416238       -4.77391296429332        0.61234191874968
H            0.78338959597873       -5.13139131535301        0.72265915116417
H           -3.79620710158027        0.25988349076222       -0.86746859772196
H           -2.70831941928211       -1.00421977955608       -1.27210655097223
H           -0.64902110770409        3.34423706600221        1.09445454484578
H            1.59041170306029        2.77869187980608        1.11157346398578
