32
 energy: -58.331294053518 gnorm: 0.000626275998 xtb: 6.6.1 (8d0f1dd)
N            4.81293235500979       -2.06445974965894       -0.03985366651378
C            3.72458871753492       -1.70904777229481        0.08608467961412
C            2.40695332700611       -1.25033218087705        0.21932594504312
C            1.56750637803818       -1.96580885185456        1.08804374603501
N            0.30461354538604       -2.13608102010924        0.94212117716763
C           -0.71643624831386       -1.66845634369412        0.29768326471651
N           -1.67499358285302       -2.47489503824665       -0.15008301309621
C           -2.74700773690763       -1.69778541381725       -0.38233203335177
N           -3.88567605327198       -2.21234892980500       -0.85297529252312
C           -2.51638094706320       -0.32410419803738       -0.08264617030110
C           -3.49773127969490        0.62388889413740       -0.31301963337026
N           -4.38133957923121        1.33962602710861       -0.52094415447674
C           -1.14301537671735       -0.22912383977046        0.25835661633459
C           -0.29408307220631        0.85213318908025        0.34946331031305
C           -0.73540841218846        2.21421486172608        0.56662996951491
N           -1.91900987203364        2.58233739388254        1.11964163835257
C            0.31946013384292        3.06843509377796        0.32429589189604
C            1.43349017693407        2.31250800005270       -0.07777343381038
N            2.64084882036965        2.89583813982517       -0.40618582539803
C            1.12524773675846        0.93450698697676       -0.03147858920929
C            2.08495733222587       -0.03057728948896       -0.44080491601089
N            2.96436892314799        0.36485554750187       -1.39105415337929
H            2.02234254465229       -2.55352749015738        1.88077520539541
H           -3.92430674789685       -3.19476449674592       -1.05827855021664
H           -4.69246191221044       -1.62857319180018       -0.98753950849928
H           -2.69779033821226        1.94588602267092        1.07691756378019
H           -2.16025496846002        3.55768510569562        1.05757133984797
H            0.31033372729189        4.13515361752148        0.45093725695170
H            3.46839108256022        2.35962751928138       -0.18595606830927
H            2.71029132698372        3.86003733843326       -0.11302195223020
H            2.82282346308607        1.22865169245371       -1.88413875578149
H            3.73936385986483       -0.22853696436251       -1.63644146138090
