27
 energy: -46.138541279602 gnorm: 0.000551584209 xtb: 6.6.1 (8d0f1dd)
N           -4.29192709947930        0.12729525998146        0.12333862865332
C           -2.98525050466144       -0.16962037723708        0.08588299943579
N           -2.55470908711332       -1.43511680470039       -0.06470370462771
C           -1.21869715420313       -1.35177361412807       -0.07698003867575
C           -0.49552479726741       -2.52136919917131       -0.22984128191991
C            0.85435543443404       -2.84275793885461       -0.18327125444622
C            2.03944753658930       -2.16808461869578        0.01123891892366
C            2.45326281381690       -0.82116255150687        0.11045991504566
N            3.78193479183260       -0.69470444122249        0.36234677454680
C            1.75447609675391        0.39241725784869       -0.06074768067911
C            2.41001273481437        1.61433002092582       -0.24520710531355
N            1.59466101445283        2.67512855252431       -0.29586444806337
C            0.36239721147925        2.20955952896882       -0.09853377023022
N           -0.71172241124899        3.00325102815516       -0.01644792999849
C            0.33398084576746        0.76589307966558        0.00560929281537
C           -0.86144186835941        0.09267655533663        0.06115764960764
N           -2.03490241167827        0.76689904994948        0.16213939763431
H           -4.57725485899167        1.05948211137659        0.36103068379939
H           -4.94824593772410       -0.63047028160480        0.17069445608387
H           -1.15550666313180       -3.37009341185519       -0.36793835911590
H            1.01403841303465       -3.91244651050714       -0.28717865420168
H            2.88872099262907       -2.84284388391056        0.08592167692635
H            4.36596309895983       -1.50884582834811        0.43142188756760
H            4.19800685958980        0.21035789851873        0.47664108173604
H            3.46055424386496        1.78858307741577       -0.40621188712222
H           -0.61838106545286        3.96518043094686       -0.28982988422980
H           -1.60102483740739        2.50712618942859        0.01730719934817
