29
 energy: -51.161291236789 gnorm: 0.000988226596 xtb: 6.6.1 (8d0f1dd)
N            3.58294127707066        3.82309695071571       -0.11877766024332
C            2.83840723324757        2.94915829832364       -0.14917429526236
C            1.92818015924113        1.87152837996803       -0.18455947731845
C            0.73743486915099        2.10206089805781       -0.90200214894221
N           -0.41879372356176        1.57705575673275       -0.70532809697876
C           -1.00934126546283        0.55760503644407       -0.17014950202004
C           -2.34805601963202        0.58047056878206        0.24814749530846
C           -3.16475050973203        1.68853288013168        0.44537475216791
N           -3.89206628382740        2.56149440592996        0.63160122935697
C           -2.78189889784058       -0.77135452503896        0.39938169714043
N           -4.01738876382740       -1.12390752592072        0.77574319740518
C           -1.72097624109691       -1.63537264944532        0.09475555230813
C           -0.57182708574767       -0.88405256508344       -0.15220678917087
C            0.73964926101670       -1.34361879511152       -0.15460052619744
C            1.07498246292673       -2.72770687777492       -0.19703358649539
N            0.25200154555035       -3.74658587228113       -0.59770192109334
C            2.39152681440807       -2.89687506804179        0.24987557672275
C            2.90662860186370       -1.65900148698104        0.57687990124404
C            1.97330203456954       -0.64229416672083        0.27157236310513
C            2.37896002525309        0.67551928205718        0.38402589252520
H            0.74002234922086        2.91731860499702       -1.62250381482268
H           -4.68341152583554       -0.41368846848656        1.02858042819020
H           -4.27347513904055       -2.09135904687892        0.86100585638101
H           -1.77263068286627       -2.70023794003438        0.20727275675545
H            0.71423172397382       -4.62655514627745       -0.76859315142736
H           -0.46252275293416       -3.50933664904238       -1.26772896446057
H            2.90815845783065       -3.83777000729179        0.30861348509018
H            3.89947886552658       -1.47302001237863        0.94410330018451
H            3.35548376565549        0.77553346805096        0.85152996364813
