34
 energy: -57.762159233720 gnorm: 0.000779542150 xtb: 6.6.1 (8d0f1dd)
N            2.72452877368455       -2.84297053166943        1.73523204573790
C            1.97270051574107       -2.18373750267677        1.16464542875387
C            1.03834177180963       -1.38698678586888        0.47142203654921
C            1.63428601976953       -0.22004126488172       -0.11846329595961
C            2.95426970707405       -0.16991754346788       -0.45901487686461
C            3.30511027133668        1.18676631256316       -0.78120351489122
N            4.53059169435174        1.56978554326022       -1.19932956302382
C            2.20286424253954        1.98725131660391       -0.55228465333086
C            1.11594821456015        1.17284174430124       -0.17363216702463
C           -0.11873384126247        1.65852917063657        0.20772475590253
C           -0.28674190073923        3.00466159102319        0.68628905416637
C           -1.59230973647083        3.20712536187761        1.00216463751876
C           -2.32911199086410        2.03546406048429        0.64414511332420
N           -3.69908702515645        1.95028987374601        0.75039602316139
C           -1.44111574192834        1.06549120716965        0.17836243014772
C           -1.87636065672287       -0.12166075893834       -0.50256954268087
N           -3.04791977377000        0.02233925250259       -1.19190955682366
C           -1.33130781384428       -1.39374136658535       -0.43378638508555
C           -2.01797055238913       -2.40951169904714       -1.12016631950676
N           -2.57664776838574       -3.23899705288094       -1.69352148429899
C           -0.23968560011171       -1.90286718992730        0.37478687963936
N           -0.52064859244876       -3.07675521341778        1.01184381567167
H            3.64005824270522       -0.99698008951948       -0.47882400993986
H            5.20843547056435        0.87279544236098       -1.45101437085692
H            4.68142854061839        2.51550297590454       -1.50217550247838
H            2.15150851574663        3.04490778121723       -0.72424082134320
H            0.52353835911027        3.68734835264806        0.85362385164090
H           -2.02789440736783        4.08680490905106        1.44030651139813
H           -4.08553727890416        1.01900244133665        0.78168897766300
H           -4.11589545297488        2.59407644488317        1.40510202738937
H           -3.34342917539296        0.95071291598029       -1.43741879769135
H           -3.37047267788728       -0.74135929448447       -1.76430734848639
H            0.24084871512977       -3.60736444389232        1.40487744820339
H           -1.35574259282055       -3.57867965649278        0.75933938351917
