29
 energy: -55.977524571001 gnorm: 0.000732393485 xtb: 6.6.1 (8d0f1dd)
N           -5.51210449334058       -0.83402233017726       -0.22716536205417
C           -4.45163820013266       -0.39119156940177       -0.23000083010065
C           -3.15073552910426        0.11880993422453       -0.21698220083299
C           -2.71114564064955        1.31805301666820       -0.79767718742089
C           -1.37649451442845        1.54098543010389       -0.47306304386678
C           -0.74660129518547        2.74506202724634       -0.82516986733000
N            0.17346704744411        3.38834083814308       -0.17704742705413
C            1.03041002445883        2.96775145794791        0.71762146272448
N            1.79085493409878        1.92396987094567        0.63417042350775
C            1.65830319251849        0.71641146222317        0.17373208626830
C            2.73519482830252       -0.11587168690219       -0.15691979451437
C            4.05987872924347        0.25797418836885       -0.38235863214365
N            5.16337506287372        0.50632710420330       -0.58733304475826
C            2.27334706175829       -1.45768213415313       -0.16700821373040
N            3.01897337981712       -2.52996653677965       -0.42941546781989
C            0.88402241934997       -1.47473446923702        0.13963380540955
C            0.20089911496069       -2.68549029268552        0.10817559499862
N           -0.25854953232640       -3.74257072262915        0.07149977341309
C            0.41798967938402       -0.14103838443069        0.25000531346628
C           -0.88782190676573        0.32060346701428        0.21672586606289
C           -2.05302284550653       -0.50108511298909        0.41323563059099
N           -2.15521326753222       -1.58972341553832        1.19602993489730
H           -3.33354029850191        1.99749264903440       -1.35038427965685
H           -1.21417172410259        3.31742215564717       -1.62138280144219
H            1.28364282982327        3.67475079330915        1.50311513528720
H            3.98657199222427       -2.42047009417183       -0.68456784749697
H            2.61331696654074       -3.45131688908867       -0.40296692326146
H           -3.00344500169554       -2.13083119737903        1.14827961660577
H           -1.33679789953185       -2.05180422901603        1.55226126615459
