33
 energy: -58.844003518625 gnorm: 0.000594693752 xtb: 6.6.1 (8d0f1dd)
N            5.16639152501962        1.06490634938883        0.79971612720042
C            4.05111808185195        1.18357411339078        0.54192648570097
C            2.69056127885940        1.28913867022861        0.25446980433582
C            2.01791299561867        2.42771091900837       -0.14989912475664
C            0.66052911035185        2.10799961241537       -0.34445772948018
C           -0.26668855009826        3.01721032885128       -0.85442020840468
N           -1.00899824923070        3.78445082634345       -1.28586294173063
C            0.45763809091006        0.72694085285845       -0.10527367270446
C           -0.78386345935342        0.10814520923110        0.01871004999343
C           -1.98428662503378        0.78556620228512        0.40555176505242
N           -2.09474786365288        1.96540638101716        1.07154783779741
C           -3.06185999587732       -0.09683803189994        0.22599367561994
C           -4.39171598633403        0.17482582376841        0.54489059158591
N           -5.48650711485775        0.41075012292540        0.80791909579597
C           -2.56965697990613       -1.29892917128962       -0.32192656942370
C           -1.18570731028371       -1.24628239905339       -0.39424944863530
C           -0.44593085689437       -2.34223839356204       -0.91369325379985
N           -1.11713664820983       -3.11468013406661       -1.80110966287513
C            0.78563982106012       -2.86052584994379       -0.49507660134653
C            1.81549962729671       -2.39890704867384        0.31433654682093
N            2.66291480088661       -3.34623001219185        0.79747183381864
C            2.23972146964141       -1.06920222656160        0.57858201201226
C            1.78632947187899        0.16971658957741        0.22149813302086
H            2.45264048991580        3.39864915000335       -0.30681405017944
H           -1.36008533012513        2.64783211541267        1.00307784034841
H           -3.02622834304172        2.33514886901088        1.17219748739773
H           -3.19362862479807       -2.14695705941214       -0.53981787809602
H           -0.72492764573516       -3.97456144140977       -2.14102023468147
H           -2.00571551310081       -2.81451637121269       -2.15823040593930
H            0.93105959835890       -3.88882359484852       -0.81585830361070
H            3.51574270470234       -3.08124248433722        1.25751024866820
H            2.52353338852469       -4.31655466227012        0.58072172651021
H            3.22670065227059       -1.03964054048280        1.03495039568775
