35
 energy: -67.097144101367 gnorm: 0.000838163171 xtb: 6.6.1 (8d0f1dd)
N            4.75541901352302        0.08198174747077       -1.74954383372400
C            3.75893600003813        0.20515005379217       -1.18622715379976
C            2.53984725446518        0.37005058016523       -0.50284751763833
C            1.90076863706718        1.59165232880115       -0.65715840082993
N            2.43321597588651        2.49988991785704       -1.50085106501697
C            0.76835180973624        2.06647164387717        0.09935509506264
C            0.67601184151868        3.37182505570846        0.56242109419690
N           -0.53044718820253        3.66520717803441        1.08944022919003
C           -1.30245068752805        2.61843119863907        0.87625826367129
N           -2.53390743103178        2.54541292571813        1.40467031603889
C           -0.54862671246792        1.51542263355212        0.24794232444166
C           -1.03018130395853        0.26856565055378       -0.08815798828353
C           -2.36947755128381       -0.05656255464513       -0.46709218083386
C           -3.40141035962275        0.81289829548562       -0.80290107603867
N           -4.29831744887226        1.48447446976721       -1.07527060010169
C           -2.47587730109289       -1.44557561376164       -0.61904869682164
N           -3.54434239301689       -2.13955481544007       -1.02620810171313
C           -1.21061631609509       -2.02339327790462       -0.26210770844492
C           -0.98103707202875       -3.40010504330743       -0.31842397875761
N           -0.86750948648702       -4.53751060322634       -0.44002381944507
C           -0.30528032818526       -1.00604754250030        0.02403931691926
C            0.96663018762897       -1.28702213204352        0.60752387425754
C            0.95791724689495       -2.43356264802689        1.43327871066399
N            0.96854984138322       -3.31894225431858        2.16650439071007
C            2.21994359315134       -0.71067083238838        0.40032541066420
N            3.28872316575099       -1.28591291299987        0.99514107521655
H            2.01820417098243        3.41144866821479       -1.57839090409084
H            3.28567159963010        2.30050867932745       -1.99880552357714
H            1.45369147284891        4.11482058165519        0.57671975828548
H           -3.22507269500234        1.92366819827510        1.01912984780864
H           -2.86114770838570        3.38663769730161        1.85171785962852
H           -3.48617147495936       -3.13950781326296       -1.12121555275683
H           -4.39061803903346       -1.66441396702120       -1.29014984785492
H            4.21904915003083       -0.99210401355946        0.74804511987064
H            3.17530018061706       -2.14469144169092        1.51034828630164
