26
 energy: -47.986894259155 gnorm: 0.000535424020 xtb: 6.6.1 (8d0f1dd)
N           -0.62306185257128       -4.60510087683335        0.07725760999645
C           -0.41910734913836       -3.47632817078396        0.04782899441067
C           -0.19228518816310       -2.07451497841601        0.01740515490440
C            1.19424383116973       -1.76055821466206       -0.02640839188310
C            1.95124312454326       -0.61973871999990       -0.02693294620834
C            3.34481331183313       -0.89629529333649       -0.07657048178281
N            4.46357799464907       -1.14672946147024       -0.11822540685926
C            1.66976440970896        0.78827754516187        0.01524391655707
C            2.65808826806481        1.73515002821389        0.05813048938847
C            2.00809418164358        3.01667458036632        0.06536566113432
N            0.71896249302068        2.92143122326397        0.02564445913808
C            0.40984807467455        1.56401702853754        0.00110210637527
C           -0.90857062704644        1.23628800272815       -0.02203601664461
C           -1.91709505404233        2.29370299514074       -0.04665150360143
N           -3.12165060595050        1.83348563403956       -0.05069138006028
C           -3.02858988145070        0.45330212664279       -0.02374352580085
N           -4.16997022796291       -0.24648388871929       -0.02313683556323
C           -1.69399989959114        0.00805484358548       -0.00998758048219
C           -1.36665684791574       -1.35029269557698        0.02408261846278
H            1.79917069774015       -2.66511308849672       -0.05885480148939
H            3.71838512470803        1.57411186257473        0.08109504356133
H            2.49608116214322        3.97477431396590        0.09840038249771
H           -1.69269966152230        3.34244223446524       -0.06286432490944
H           -4.18552195008255       -1.24916436657802        0.02525667956712
H           -5.03375614339320        0.26685059642171       -0.01517203753531
H           -2.24440054856970       -1.99181062473521        0.05404213032697
