27
 energy: -52.513546760468 gnorm: 0.000986861412 xtb: 6.6.1 (8d0f1dd)
N           -2.36826960515270       -3.57620059916385       -1.33656266957266
C           -1.60586272844308       -2.82688569523356       -0.91422968561240
C           -0.59063322552001       -1.99086639026774       -0.43726055476184
C            0.69234326204551       -2.51758026499042       -0.12985493247937
C            1.51454622484423       -1.50688958719027        0.31257159336074
C            2.83657943357164       -1.68011594959721        0.73499106112735
N            3.90009373603243       -1.89162799389207        1.11331866062960
C            0.79310410732538       -0.25993202537694        0.18582862373402
C            1.44663876487282        0.93216756400049        0.08260158220909
C            2.84808344230399        1.03305437486900        0.23427885149171
N            3.97078937985493        1.26026675337016        0.30228989594875
C            0.86166453813892        2.21601370259935       -0.34898677326689
N            1.48297515881586        2.83835930201513       -1.36077583503980
N           -0.09428703466775        2.81432058729209        0.26379918729928
C           -1.18636882630171        2.50370818544257        0.90295607745544
C           -2.02460513878670        1.44169925210603        0.62876438079565
C           -3.42278462272529        1.49193890876641        0.82673872068248
N           -4.03580373001680        0.42979404317347        0.32453770702325
C           -3.09440144588293       -0.38151739069122       -0.15913543921372
C           -1.79138860503045        0.14575300809377       -0.02278156764010
C           -0.62101663908832       -0.61741983483693       -0.15150560839070
H            0.96174222031957       -3.55478255220903       -0.21806405036086
H            2.36617070027378        2.50266545369609       -1.70804890535489
H            1.16603944090132        3.75195884658328       -1.64146587622026
H           -1.53934461215960        3.27499720683413        1.58014559060356
H           -3.97744573137389        2.30182871018518        1.26320287974670
H           -3.37104387814444       -1.33173812627782       -0.57169611989548
