27
 energy: -46.910933350770 gnorm: 0.000919039460 xtb: 6.6.1 (8d0f1dd)
N           -4.72555141592180        0.44387969952325       -0.01079440235860
C           -3.58015541018592        0.40435959708527        0.09363817054637
C           -2.18119033234417        0.33953630709622        0.21302604040021
C           -1.60228807315357        1.37658844631689        1.00981815856790
N           -0.51522781866593        2.01512743546711        0.82896546815743
C            0.58634669823152        1.92588300201807        0.10648538819263
C            1.28994413153325        3.00100520712071       -0.38545423302662
C            2.56661708351740        2.54940267992271       -0.79595154963662
C            2.71172083679138        1.20698110746000       -0.53159965897744
C            1.46952746863950        0.71478288763113       -0.05787549591589
C            1.07594010227836       -0.59070024692291        0.05109680190542
C            1.99600748261039       -1.72869621069605        0.20347861177084
N            3.32086887691927       -1.64572569422481        0.44199228199847
N            1.36241415203338       -2.87948069669477        0.18643239025209
C            0.05893511828257       -2.59396819946103       -0.04525877778545
C           -0.21818634027741       -1.23538265177304       -0.08074743906987
C           -1.53718118261044       -0.74534547834201       -0.38561308789031
N           -2.26737419999874       -1.53381793230092       -1.20669463107641
H           -2.23875691645141        1.78349306948055        1.79402600446525
H            0.93178793557286        4.01018267074496       -0.44211259270166
H            3.31656554677401        3.17652062395132       -1.24588097500646
H            3.56729389305739        0.61258585432024       -0.78995000575170
H            3.70730297622284       -0.76763952794370        0.74384115091711
H            3.76086503091873       -2.49284330607343        0.76342006241284
H           -0.64045214484406       -3.40902868881530       -0.10873425270649
H           -3.24992164355934       -1.34836897350140       -1.33220514274165
H           -1.89240934556823       -2.40774090328893       -1.52938639324164
