26
 energy: -47.218053351802 gnorm: 0.000992448857 xtb: 6.6.1 (8d0f1dd)
N           -3.24930369384088       -2.45257223057933       -0.08825587461764
C           -2.62091912119415       -1.48709152857148       -0.09287862239291
C           -1.98106704545418       -0.25110076916910       -0.07738743132882
C           -2.69390559854047        0.95135831098156        0.25242152665284
N           -3.99718434929766        0.98076992464645        0.54724588140659
C           -1.81177608359054        2.03653290037364        0.21924232708959
C           -0.56065927257006        1.57808445277372       -0.17282658876007
N            0.38418888522069        2.34230881642112       -0.64807694086317
C            1.65768230592834        2.23679080013628       -0.85116242539012
N            2.55827123819661        1.65452492957928       -0.10102695703817
C            2.55635277177928        0.49299841400506        0.49287257689799
N            3.42042399726648        0.31622062162494        1.50892831084749
C            1.83581267959898       -0.66388701683916        0.03403929614536
C            2.36257821780440       -1.94258082709259       -0.02142244304030
N            1.45043297520405       -2.86022859936069       -0.42210872666321
C            0.30915558378054       -2.22721315992791       -0.54852907658463
C            0.43331642913852       -0.82051733843682       -0.31865942487238
C           -0.63160696832213        0.06715629795418       -0.25162533428639
H           -4.44506890453990        1.84086559891940        0.81028612564642
H           -4.53837104541680        0.13300042389165        0.50540962457884
H           -2.07218002979196        3.06347818895104        0.38445598799051
H            2.05608016145028        2.89555127433955       -1.62037823946272
H            4.04191933250148        1.06717912153895        1.75767077839114
H            3.60134504563231       -0.61060357203743        1.85152931592847
H            3.38115020178213       -2.24155621039721        0.15436027776654
H           -0.58304594792359       -2.74095333372977       -0.85215521644367
