32
 energy: -59.126038868720 gnorm: 0.000810323344 xtb: 6.6.1 (8d0f1dd)
N           -5.31056929248611        0.38505973741550       -0.46848095187945
C           -4.17070121683331        0.40070543046815       -0.33315682299146
C           -2.76439774769761        0.38659509732328       -0.15747647983533
C           -2.16359367970178        1.61323963111788       -0.29626994786016
C           -0.85862421063967        2.08660810892280       -0.06376538389790
C           -0.79162987209582        3.50661361419344       -0.05506124693240
N           -0.79710121336738        4.65359169835769       -0.07531957327238
C            0.37951453802008        1.49253527106696        0.17217224785815
N            1.37061349122484        2.33412584664782        0.50083963569432
C            2.50942393504929        1.64231867936063        0.52352852305612
N            3.67126698672637        2.20510998757216        0.85918706106536
C            2.30788360784509        0.27761058303639        0.15015105162689
C            3.34319090041750       -0.63970358447494        0.22624139762398
N            4.26260803237695       -1.33256358967123        0.31053645578567
C            0.91714850840408        0.11401283713832       -0.04843121507713
C            0.27715115208122       -1.07417097973817       -0.36797632784918
C            0.94160966972074       -2.24697239955326       -0.81971790978021
N            2.05159060457457       -2.31016221586905       -1.58097842272993
C            0.17208748102160       -3.37979942697466       -0.48477060735613
C           -0.99632797768149       -2.97583098865208        0.12921838667645
N           -1.97357465841163       -3.79484173667229        0.58479843656548
C           -1.07925873676970       -1.53001884599769        0.05578819613220
C           -2.28256547010943       -0.92314994911266        0.15935664036591
H           -2.85608404734497        2.41298822174296       -0.54822916142405
H            4.51451121125888        1.65955259969247        0.89779143116062
H            3.67251543143652        3.16816898265490        1.14738095113102
H            2.51524546915646       -3.19737382933761       -1.67734575036050
H            2.62430914433943       -1.49295922940756       -1.70224603008663
H            0.46514096447379       -4.39590917783364       -0.67456144927470
H           -2.67406516401932       -3.43837281764754        1.21104407338276
H           -1.77566075563796       -4.77862114039987        0.63717407179326
H           -3.10404072733017       -1.58970969507137        0.40908001268788
