23
 energy: -44.037480200140 gnorm: 0.000712477114 xtb: 6.6.1 (8d0f1dd)
N            4.84118776861428       -0.40777589635769       -1.02911030584396
C            3.82022823092930       -0.01431770592329       -0.67801997618569
C            2.58302881179663        0.48463391196632       -0.27173125908751
C            2.24223806143981        1.85575583451470       -0.08824292576952
N            1.00761268303688        2.04450396262087        0.31310253144811
C            0.41419156129266        0.82507762843959        0.37317837337005
C           -0.94681592237141        0.68371853995339        0.34263980913128
C           -1.81744844979086        1.83838587474012        0.40046656024256
N           -3.06409456593486        1.54646249249157        0.18840430708378
C           -3.11450911010577        0.19723856471631       -0.08057954559384
N           -4.30464405834782       -0.36295696985846       -0.33359938956090
C           -1.85152521274825       -0.41494440158323        0.01489454523320
C           -1.60501379293350       -1.74943334413485       -0.36458091482640
N           -0.66498062486316       -2.55434057622049       -0.00933549660185
C            0.44601976683982       -2.34821844078435        0.67846086419700
N            1.38294009264544       -1.49508689160044        0.46573401304939
C            1.46065915020404       -0.23897375022471        0.13993909630281
H            2.90439650661419        2.69020929304355       -0.24113498013342
H           -1.48572306624132        2.83733646732721        0.60995888842993
H           -4.38363624868099       -1.32276894370727       -0.61677629550177
H           -5.10291444909319        0.24410563677501       -0.40248178824665
H           -2.36697599682714       -2.21831724790004       -0.98592536174280
H            0.68853258481906       -3.14068764209542        1.38461142840688
