27
 energy: -47.710397401936 gnorm: 0.000867922584 xtb: 6.6.1 (8d0f1dd)
N           -2.53557074732987        4.16380137261521        0.00968877141642
C           -1.90430998715892        3.20476396004950        0.00620884274034
C           -1.14334622808073        2.00760217604426        0.00202028712116
C            0.25703257248522        2.25317089433208       -0.00382822031658
C            1.37539436133388        1.47634195666261       -0.00533262878057
C            1.65661187843030        0.08969698845466       -0.00097011434413
C            2.98008424011802       -0.32766317652898       -0.00000709247597
C            4.11205065429427        0.49041392250993       -0.00285632801716
N            5.05665740655288        1.14599641265878       -0.00339438870318
C            3.04084444387826       -1.77061558967142        0.00434007748262
C            1.78020599489452       -2.24952406874512        0.00512593087979
C            0.83570207610186       -1.14628091000794        0.00182583547444
C           -0.51062460855361       -1.35785692204623        0.00050249568917
C           -1.07185350307851       -2.70390438997126       -0.00091146044287
N           -2.36454654940806       -2.71635330775516       -0.00218269887055
C           -2.78428631083830       -1.40542754437183       -0.00068802117357
N           -4.10861457067054       -1.17692609606620       -0.00553143854163
C           -1.70838798675882       -0.50238035896982        0.00051675394485
C           -1.93376044248877        0.87631957192247        0.00329170871447
H            0.46964831869507        3.31831429632902       -0.00705339841190
H            2.29730342308567        2.05118379149514       -0.00974872491714
H            3.95577221346477       -2.33405211165779        0.00642630991856
H            1.51161755456093       -3.28660457790951        0.00835238290462
H           -0.52865454275648       -3.62830544548507       -0.00181767548798
H           -4.49476510790765       -0.25148024403548        0.01430964586813
H           -4.71837894559111       -1.97431730038757        0.00695960651529
H           -2.99388525677429        1.11915270683573        0.00624902491346
