28
 energy: -52.227700686177 gnorm: 0.000631208670 xtb: 6.6.1 (8d0f1dd)
N           -4.60250888472788       -1.91918859917635        1.33234360499237
C           -3.61669029366297       -1.53995967722258        0.88649059979494
C           -2.39710390941872       -1.06366078003666        0.33998265053839
C           -1.34300937946383       -1.91804699973458        0.39500700621871
C           -0.03420030933448       -1.82564339495247       -0.16744104851854
C            0.69842663648985       -2.96167077302985       -0.49128949299568
N            1.94055656716756       -2.69948037789331       -0.96116649863122
C            2.12466690896887       -1.41013513872432       -0.83085198514855
N            3.16459540668435       -0.78120065521632       -1.37061151156917
C            0.90019859841558       -0.73745885640826       -0.26691267413173
C            0.81873649461016        0.56666512597226        0.13002848165887
C            1.93714121442798        1.37422878481103        0.62795891065366
C            3.22083895129780        0.92093685512347        0.94463730476170
N            4.28537767145403        0.57814522868598        1.21336246251300
C            1.46117750569542        2.61734529930101        0.95005922914223
C            0.08125508858309        2.68121052563851        0.59790451501635
C           -0.33898664761800        1.45459120144253        0.15742183015903
C           -1.66970276189729        1.25778286268442       -0.39722334281910
C           -2.15714550458249        2.41168514553747       -1.06585401799584
N           -2.53823073297517        3.34057773412586       -1.61945929651081
C           -2.53260529544089        0.22150635166946       -0.30426564906866
H           -1.54721202733573       -2.88465733496188        0.84495211492378
H            0.36354487015017       -3.98039178322353       -0.41551344421941
H            3.39181681346621        0.17009806393876       -1.13431904837162
H            3.88311366840340       -1.36033895681574       -1.77585078753649
H            2.02715532978683        3.41243465277025        1.39906126181085
H           -0.52954508025504        3.56115987507158        0.68292200225015
H           -3.52370920978910        0.39078476712317       -0.71566944661734
