27
 energy: -51.727850174351 gnorm: 0.000752373812 xtb: 6.6.1 (8d0f1dd)
N            4.48888335807884       -0.71690076981111        0.96950377514487
C            3.41154894630917       -0.91428068949892        0.62256500103048
C            2.10687480092321       -1.22973513342985        0.23838015971509
C            1.63612632422968       -2.51903306197569       -0.04038424227373
N            0.34224363277977       -2.54833522265083       -0.34404646333865
C           -0.14165021580504       -1.30577212049819       -0.22101587110529
C           -1.49970693834528       -1.09081826148883       -0.38102191463134
C           -2.39512883845814       -2.10001030781584       -0.87267911031219
N           -3.64973268451549       -1.74638287090586       -0.76459344344630
C           -3.66783570181626       -0.53513569709044       -0.15078586053669
C           -2.39457690647694       -0.05441896287556        0.09540338789738
C           -2.06032080054238        1.15278117391921        0.78295109532144
N           -2.85480253045624        1.55225067866910        1.78699675484936
N           -1.11961089684040        1.96708914626761        0.40505998917563
C            0.01048994907179        1.96606228893034       -0.23226813288746
N            0.27883925865075        3.03945316361467       -0.99645241979043
C            1.08237440336976        1.00725372478104       -0.04745893984919
C            2.36326601412470        1.59308669650060       -0.13697138533138
N            3.35598655633310        2.16020123304797       -0.25472579162065
C            0.99201762690907       -0.36583714962428        0.09914367794117
H            2.21129401281054       -3.42759772171062       -0.01637692727175
H           -2.09568501006819       -3.03479849535232       -1.30409734777964
H           -4.60576980866460       -0.04580735386141        0.04260292246393
H           -3.64504695081001        0.99228281820497        2.05226251736179
H           -2.68234290945144        2.42792929920143        2.25042127873524
H            1.20799695093794        3.19323335473281       -1.35263665770266
H           -0.40285976687782        3.77605275241904       -1.06407581415880
