27
 energy: -51.713494534807 gnorm: 0.000787492341 xtb: 6.6.1 (8d0f1dd)
N           -4.73294486060270       -1.56187402019253       -0.09750935623035
C           -3.60724217121441       -1.34290238266876       -0.01459371333695
C           -2.23595086449533       -1.04170043069264        0.07468656884968
C           -1.42910295394944       -1.98947916993124        0.72789368290119
N           -0.21597974534844       -2.28552125169022        0.43593309199123
C            0.90607852020541       -1.85151303429049       -0.00586458186486
N            1.85500494607200       -2.65854087441050       -0.49575843862851
C            2.98177665180031       -1.94901610549996       -0.51118511496946
C            2.82953173116741       -0.61882738787534       -0.08345087311785
C            3.85773710184113        0.31995296953406       -0.00911247755409
N            4.72770107421972        1.06902483737737        0.04998897959141
C            1.44661422388605       -0.45296688093210        0.16518813223967
C            0.70138036355917        0.69936584531841        0.23959507787650
C            1.29826554788855        1.99030715509035        0.45464338843653
N            0.42069021598555        2.95308530997963        0.45189291355448
C           -0.78632833036785        2.39387403103737        0.14806600222559
N           -1.86830224774744        3.22354462180123        0.05444164145872
C           -0.71117450347600        0.99516295526193        0.00723039073180
C           -1.83570565894642        0.22746188821069       -0.41930622543554
N           -2.72965568201776        0.87314323646541       -1.19383017252448
H           -1.90748197124136       -2.66579059401491        1.43207600468510
H            3.89956834407536       -2.40457411778985       -0.83947480449723
H            2.33440549136903        2.17548420964540        0.66305547433542
H           -2.76803033626792        2.85465891909379        0.32336453971300
H           -1.67191799603018        4.15120017146969        0.40209078816903
H           -2.51631862052254        1.78431533156078       -1.56235599257689
H           -3.57494875004081        0.40743221714233       -1.48300805342882
