34
 energy: -61.799607679282 gnorm: 0.000735805540 xtb: 6.6.1 (8d0f1dd)
N           -4.40621239781704       -2.65358733175075        0.54655614273524
C           -3.48218307016196       -1.98793365008073        0.37190545711870
C           -2.38739661414632       -1.15748524480015        0.16136398254666
C           -2.45875398376444        0.16213769365241       -0.39661665455060
N           -3.61363736819926        0.69455550234381       -0.89580659551642
C           -1.19498020460963        0.73968870830812       -0.35308698553111
C           -0.90746069576660        2.03395272225212       -0.92959005457130
N           -1.61013029757186        2.36933668515354       -2.04990017341055
N           -0.18873741339587        2.97312589235047       -0.40975058538215
C            0.58264326964904        2.88758406793862        0.69057130838211
N            0.33271954428512        3.80674400599210        1.65694616187831
N            1.64868739250247        2.16174142536270        0.82181181918360
C            1.99034663514493        0.99712887165408        0.28895915551317
C            3.30219026884537        0.61697619034881        0.08816348409024
C            3.34278981722425       -0.76835220424010       -0.15121041964582
N            4.44082503194238       -1.49898541441765       -0.41220745198878
C            2.02912097722252       -1.29596898185372       -0.06117985316492
C            1.78170946611297       -2.62583368574082       -0.35899364209268
N            1.66822011738351       -3.74952645582956       -0.60693439399259
C            1.12407945795211       -0.21587900657147        0.14441733406020
C           -0.25901324562763       -0.25756880061088        0.14208960375039
C           -1.05853088449217       -1.43079674889447        0.46442477528827
N           -0.64446631617785       -2.50810366627864        1.16834296847642
H           -4.46596827381889        0.23843875172628       -0.60974792828383
H           -3.65689564739254        1.69756939015547       -0.98284974235171
H           -1.33192022339925        3.22189170702106       -2.50834278192799
H           -1.96328479938503        1.62570047495372       -2.62800539705518
H           -0.29516583783864        4.56130819816329        1.44274430891231
H            1.04196746722338        3.95337423937118        2.35412539012396
H            4.15310584881296        1.26824514471301        0.13175815513515
H            4.34871044019536       -2.47879968376764       -0.62015961898168
H            5.32370102474346       -1.04695622215805       -0.56765568512182
H           -1.29700817467588       -3.27090566230782        1.25438713811735
H            0.33104085710042       -2.75484827305762        1.16996909195639
