31
 energy: -54.615426438976 gnorm: 0.000634360015 xtb: 6.6.1 (8d0f1dd)
N           -4.90241300394848       -1.57443105852408        0.25682360491934
C           -3.78149669866519       -1.34561308756172        0.13026753320018
C           -2.42677343823799       -1.05605498711842       -0.02081308685915
C           -1.47052127261611       -1.87204067920930       -0.66134388202718
C           -0.22068044775623       -1.29383122257408       -0.52166294981268
C            0.97727809510496       -1.90677059778024       -0.97883334082718
N            0.93544451186709       -2.62196190261511       -2.11992723981169
N            2.06978211282833       -2.02070776489270       -0.26529231679352
C            2.71230016125006       -1.32634130436390        0.62269927916704
N            3.49044599845680       -2.02925393720887        1.47630242704538
C            2.86142690109156        0.09780021015530        0.64643426395855
C            1.99174772717453        1.08612264830626        0.28946404944724
C            2.40477153014163        2.45028731040881        0.26985701491492
C            1.32205447091834        3.24853492285945        0.05606649659961
C            0.14982126340071        2.43999074730715       -0.01804794885250
C           -1.09123478992902        2.97825065088997       -0.34351656931328
N           -2.09858365775788        3.46545899477190       -0.62102429483226
C            0.50545204498604        1.08660893911161        0.10515960735560
C           -0.39310265958133        0.01225542655720        0.11871817200836
C           -1.78472471757872        0.10551139833787        0.44238340765372
N           -2.38027193470221        1.01267122600259        1.26610157323742
H           -1.68504308264431       -2.82962159213339       -1.10100804314755
H            0.07757307380703       -2.68367680922998       -2.63762899043580
H            1.71959576103706       -3.19335464883119       -2.38153489006141
H            3.42245179002381       -3.03127686115225        1.49121467085615
H            4.04369149389805       -1.56183110813440        2.17057567468176
H            3.82948121002739        0.43120678525324        1.00477953425817
H            3.42589895183180        2.76800678322848        0.36758567021892
H            1.31921992895637        4.31792782890412       -0.05951281059877
H           -1.94746409233856        1.91275224630329        1.38615231666036
H           -3.38816052594587        1.02349217673500        1.25278706249044
