28
 energy: -52.243912217740 gnorm: 0.000819946741 xtb: 6.6.1 (8d0f1dd)
N            0.19774957829757        5.21472067430749       -0.18411113985608
C            0.15805602502420        4.07567843277394       -0.05633090341866
C            0.10679003430241        2.67054390508850        0.10018323545307
C           -1.01182466602101        2.18589223428655        0.82988758990140
N           -1.63248233008141        1.08031589969483        0.67153618795041
C           -1.52206289200424       -0.11220240124813        0.18143677118003
C           -2.62420915787380       -0.89439010882844       -0.19724938198136
C           -3.93704092525763       -0.47203626364589       -0.39636511560367
N           -5.03435268307728       -0.17957026738212       -0.57863424659923
C           -2.18938005793903       -2.24828669032220       -0.29036626854232
N           -2.97796017662987       -3.27744188504244       -0.60519235468215
C           -0.80822179230933       -2.30382303851782       -0.01321952774044
C           -0.32362508654592       -1.02117110700212        0.18069704476108
C            1.02348176630791       -0.64160271248445        0.16403747636689
C            2.05541037194566       -1.59034701132864        0.19932955386650
C            3.27330737728306       -0.96224423351968       -0.08045006835473
C            4.53049716456294       -1.58078346094446       -0.08974898750155
N            5.55808812891871       -2.09267707249776       -0.09921901108749
C            3.01824790370093        0.38808367010410       -0.35481375573259
C            1.65316305620406        0.65080872541597       -0.17350597392814
C            1.20460884651707        1.96238955038894       -0.35847840274263
H           -1.48433231039894        2.87639133131265        1.52492467059704
H           -2.62008637621264       -4.21692064914280       -0.61262954791020
H           -3.94801620075980       -3.11845871396201       -0.82263809931051
H           -0.22985758873631       -3.20690318232377       -0.03407401937549
H            1.94172907205620       -2.63262897101495        0.42809460417869
H            3.76133701932587        1.11745943985813       -0.62007806830895
H            1.95932364050053        2.59757249037731       -0.81546088517901
