31
 energy: -48.993296956201 gnorm: 0.000864056759 xtb: 6.6.1 (8d0f1dd)
N            4.59034903969332        1.18465456937481        0.49270371791852
C            3.33267238379591        0.72700401721583        0.26686206327184
C            2.98122095722973       -0.65249441952937        0.19649666418155
C            1.63739783335683       -0.74659710182154       -0.06337276015027
N            1.05629502747653       -1.87451019896227       -0.45825959175674
C           -0.10731411278537       -2.40559700077997       -0.31487353534788
N           -0.26778027726691       -3.61799501943612       -0.94076623010019
C           -1.17071451444796       -2.03143578503396        0.57428588545443
C           -1.74219140284371       -0.80887778209706        0.75886837462493
N           -2.84731435041632       -0.75752671019902        1.59687443084647
C           -1.48030650987636        0.42738442534862        0.05864234489756
C           -2.47967254895202        1.35300312120450       -0.22256992529881
N           -3.84980172592068        1.21944089665062       -0.05027293132024
C           -1.88432019773352        2.54885206880894       -0.72655582745580
C           -0.53318398916811        2.40285710012044       -0.69199837500546
C           -0.21313775940809        1.07369846841351       -0.25334852939525
C            1.09677279861053        0.65467397929130       -0.12158823031553
C            2.20769345197223        1.50186798654154        0.01546315595177
H            5.26873316702973        0.55312573736971        0.88165672803744
H            4.71919133635048        2.16635903069818        0.66805348384371
H            3.66406492026085       -1.47342679079410        0.30539603818426
H            0.43038168675813       -3.85288662275861       -1.62676411976420
H           -1.20107827825536       -3.95498914466421       -1.10045573617255
H           -1.62970334015869       -2.86731228917653        1.09142070730241
H           -3.06858246638553        0.15042264575262        1.97223952079872
H           -2.94005641605070       -1.52060822251565        2.24881370447357
H           -4.39402237134962        1.82083147055635       -0.65115047579884
H           -4.18075714416096        0.26574288967820       -0.02944566564867
H           -2.43907798683462        3.40495607769204       -1.06843321533378
H            0.19350852203480        3.11742849723548       -1.02780039969950
H            2.18274676214496        2.57515179691610        0.02086719677660
