29
 energy: -55.194630789658 gnorm: 0.000800597469 xtb: 6.6.1 (8d0f1dd)
N           -4.24074171121617       -2.86065102094088       -0.42992145607329
C           -3.33989778338958       -2.15240414546609       -0.33517191275526
C           -2.30136265937666       -1.22676717747217       -0.21732644852812
C           -0.94978197986354       -1.42661610625585       -0.42485870422646
C           -0.26480748426689       -0.19697260546148       -0.26486839872819
C            1.12475854975119       -0.12311048265413       -0.23960390899861
C            2.03290155878210       -1.17656825838925       -0.06958924939330
C            1.85571447045217       -2.55390604174413       -0.03972792594117
N            1.80424380454145       -3.70417884988124       -0.00175270173549
C            3.30058767064502       -0.56718848217501        0.21020551385797
N            4.41811572813622       -1.22164019278886        0.51765446743652
N            3.25939620721972        0.77053264114775        0.15114071406131
C            2.01645559133191        1.09933490061962       -0.20011634356517
N            1.74535943387498        2.26984966641676       -0.68338405628645
C            0.66012421952382        2.94396990189234       -0.91024729744029
N           -0.39095120373852        3.04758924999013       -0.14945646171321
C           -1.09205019913351        2.16190936334330        0.50788180323862
N           -1.87603994633080        2.63228100258506        1.49911592522319
C           -1.27532301831006        0.79795801175847        0.10188657142398
C           -2.50430363449488        0.14467332303207        0.14850546234813
N           -3.73098011705473        0.66181074586490        0.49406912094987
H           -0.49012583977766       -2.35751944379398       -0.69526939518600
H            5.25070586389611       -0.69577583877584        0.71965990212939
H            4.43779702069900       -2.22731682871346        0.51136141564151
H            0.72539482503875        3.66614187567649       -1.72129040679377
H           -1.74825001814314        3.58107710631864        1.80743465847369
H           -2.42274567594744        1.99710642596583        2.05314351905928
H           -3.86997011945702        1.64542927937680        0.31741593352829
H           -4.51437043759281        0.08287238302202        0.22636222349270
