26
 energy: -42.393502826847 gnorm: 0.000850239478 xtb: 6.6.1 (8d0f1dd)
N            3.17423577569924       -1.25072118149900       -0.78149635854283
C            1.93639146187078       -1.10371381538040       -0.23564059482112
C            1.42432360275915       -2.30613113330052        0.31273001671614
C            0.15588838704390       -2.69617312974982        0.66203039637703
N           -1.01723238543682       -2.29538685733520        0.23731422528354
C           -1.58428649752803       -1.17958867632056       -0.06628272002957
C           -2.91734345285692       -1.05660651519785       -0.50193904025467
C           -3.26350087869827        0.26396840373770       -0.29587383483380
N           -2.25598147468802        1.02879677421273        0.14870721548504
C           -1.15340692653264        0.24536860536001        0.19403323505921
C            0.11430404385429        0.77692894723783        0.19070284659221
C            0.28741672804029        2.21424853211706        0.22764095969195
N           -0.70843994892447        3.07378599575111        0.51440274707519
C            1.62081115325230        2.50989833448064       -0.02331070463110
C            2.29992606027514        1.31901049059383       -0.25121838514028
C            1.44935808335758        0.21185119800030       -0.10914137788122
H            3.59001421623820       -2.16207720009333       -0.83723012998018
H            3.66435774463692       -0.47328457128467       -1.17970650544195
H            2.18894292447906       -3.05566540001978        0.48683830569216
H            0.08256060616689       -3.61945416760928        1.23504357967060
H           -3.55863427806543       -1.86034620180456       -0.80144340258957
H           -4.23233066868168        0.71060183012663       -0.44606454650413
H           -1.63785093617706        2.64566121627697        0.45534422635205
H           -0.57445407284807        4.04913644426023        0.30724303624213
H            2.05662903233156        3.49219456152598       -0.02862685535192
H            3.35810776493128        1.28717630461363       -0.44425363803495
