23
 energy: -39.235067906037 gnorm: 0.000794608849 xtb: 6.6.1 (8d0f1dd)
N           -3.87601844421623       -0.16189041196991        0.22113476613916
C           -2.64517003712407        0.37890992032475        0.01423571732094
C           -2.41596104041701        1.75809479321275       -0.25860314615389
C           -1.07014371927736        1.97522009125497       -0.33894240989817
C           -0.37558816990656        0.74007348546599       -0.16659730870418
C            0.98881276875121        0.71767411811939        0.01455151466669
N            1.67346242093994        1.89143625578428        0.08156300846582
C            2.92887213899693        1.55006061225480        0.28132958201190
N            3.20009190873769        0.23669584431602        0.30991136177691
C            2.02130125109203       -0.36741759833699        0.14308060319910
C            1.98635789518973       -1.72896833271297       -0.13640355773717
C            0.88945332689546       -2.53296388069002       -0.40826107842624
N           -0.33093361712277       -2.45958910289103        0.03293144880318
C           -1.23598447384534       -1.62490509217679        0.40576035136694
C           -1.41061124495054       -0.28407342133063        0.04642158174851
H           -3.97542045383149       -1.16184467908359        0.21719876622198
H           -4.67730693123643        0.37111689368298       -0.06997819962466
H           -3.19251766147295        2.49698480408231       -0.34063483000953
H           -0.56611787882729        2.90791128793515       -0.49815993548901
H            3.70360306488485        2.28451456173612        0.41452235326902
H            2.96405315706627       -2.17150332002087       -0.27309704748054
H            1.08138013857191       -3.45328912331355       -0.95696810746221
H           -2.03573311759769       -2.08884848794351        0.98378030899528
