29
 energy: -55.991771829567 gnorm: 0.000891575155 xtb: 6.6.1 (8d0f1dd)
N           -5.70540519789827       -1.25834510591295        0.05241656964513
C           -4.64476871597154       -0.82774486520343       -0.03211242428994
C           -3.35834096618508       -0.28250436121067       -0.13975978505766
C           -3.04571119921103        0.94861809536609       -0.75506849148257
C           -1.68758318021968        1.20085164402055       -0.59761871063477
C           -1.11576156643409        2.39366623637351       -1.08849876041103
N           -0.12462626081132        3.08250469424554       -0.63731846474656
C            0.78741664419989        2.76390860445551        0.27842360846142
N            1.05328161028730        3.68936431446219        1.21698031292652
N            1.61201489959596        1.74232769165457        0.20007992134739
C            1.46574819402544        0.47689235225068       -0.02158420896009
C            2.56202763827487       -0.39566004776832       -0.19041237875518
C            3.88910300869045       -0.03195690300165       -0.41777936784692
N            4.99357117828134        0.22210533870824       -0.61020275816445
C            2.11126220173088       -1.71383148815700        0.01839485205857
N            2.85494047461932       -2.81846981347372       -0.00939115575007
C            0.69853716202201       -1.68597658912141        0.26434357496126
C            0.00426058284252       -2.87626450976223        0.47710052391867
N           -0.45845784068414       -3.91499833969696        0.65447721385656
C            0.23375639156222       -0.37000517284088        0.15198831004380
C           -1.10395604092531        0.02487846132587        0.06626334557149
C           -2.17807630442376       -0.85396715397547        0.32412248165146
H           -3.75424403337269        1.60718156960584       -1.22273344574176
H           -1.66659930911398        2.89123616721686       -1.88288567204187
H            1.88205501560577        3.59030777578526        1.77745909344320
H            0.59171988871003        4.58087644629156        1.16825300728158
H            2.43623482849457       -3.71483726151238        0.17923681845090
H            3.83615970000308       -2.76339215659456       -0.22680557751780
H           -2.10050500769798       -1.80988149012683        0.80493340388195
