29
 energy: -50.379135349490 gnorm: 0.000895493097 xtb: 6.6.1 (8d0f1dd)
N            5.17801405264655       -1.39370556295811        0.01896810205857
C            4.08631232930541       -1.03142835819089       -0.00736237928816
C            2.78216303941826       -0.53486412965349       -0.02031549829495
C            1.59483113263404       -1.26873860787206       -0.02859553912306
C            0.50550441977860       -0.39231793359525       -0.01218644704564
C           -0.78689864015000       -0.90646322603300       -0.00620183190339
N           -0.96857928422562       -2.22863956419304       -0.01400297547032
C           -2.30511212234580       -2.40283599751710        0.00710994038801
N           -2.85201061327629       -3.62119644037985        0.00840595270644
N           -3.04099023393143       -1.28481295666852        0.02794896506817
C           -2.14647845306572       -0.27821390675848        0.01783279709238
C           -2.64720142317121        1.00229600299491        0.02393456675049
C           -2.11382626108274        2.30049426735639        0.00230630495591
N           -3.06777376414577        3.27589644827637        0.00938991387984
C           -0.79759072885635        2.78885363112839       -0.01204801797792
C            0.47010346440488        2.24176194799979       -0.00867635821159
C            1.04520712456869        0.98040324355789       -0.00020101558651
C            2.45758804251426        0.84287996573335        0.00221832531151
N            3.40339367085650        1.82885964663808       -0.04035369611988
H            1.50926728235719       -2.33730312083921       -0.04012100447712
H           -2.25451032318605       -4.42670043352279       -0.01634259517850
H           -3.85107199641264       -3.71044998182193        0.02133606683208
H           -3.73306985937786        0.98135437063130        0.04190792746418
H           -2.81474040185384        4.24582016725802       -0.04137733282647
H           -4.04084127133442        3.03155865292626       -0.02036257902214
H           -0.77927534515271        3.87545404784556       -0.02632540865955
H            1.22479489643362        3.02408535134137       -0.02684006901208
H            4.35043240046211        1.53702150663680        0.14153314325768
H            3.16165750398870        2.74823086877932        0.28824181733183
