31
 energy: -53.812647307397 gnorm: 0.000551727062 xtb: 6.6.1 (8d0f1dd)
N           -4.66492098608072       -2.30069439429038       -0.71141859236607
C           -3.64599518396668       -1.81400788521989       -0.48891818599035
C           -2.44323868568192       -1.16048265248272       -0.22276304285388
C           -1.16974731183165       -1.67306397927896       -0.24720153911321
C           -0.24622700085838       -0.61005936518320       -0.02166234706896
C            1.11041039632832       -0.86619086238643       -0.02060942780460
N            1.58082976752250       -2.11633389958136        0.13412473737412
C            2.91091118513000       -2.01190137196872        0.24830722516722
N            3.66632205518863       -3.10068012593763        0.45671762805879
C            3.38060157581277       -0.67967739307367        0.09969799270696
C            2.26389293490764        0.09047940477043       -0.13169048371383
N            2.27391885489558        1.31954897536310       -0.61447852997523
C            1.50696104606829        2.35277481644108       -0.54254432263601
N            1.87302796541045        3.39928348024998       -1.33978452688617
C            0.46975795397421        2.63615371307711        0.41172717005594
C           -0.60269378362748        1.87560905495227        0.76715375695493
N           -1.52305415460475        2.45435371615023        1.62312317223876
C           -1.02270049005288        0.59412538167443        0.23811335673088
C           -2.35905998270615        0.24086623551243        0.11989190648759
N           -3.48391577499895        1.01231037965885        0.30989359783492
H           -0.87396104126355       -2.67920136822540       -0.46815363023464
H            3.20687287234597       -3.98736076849189        0.56381650968178
H            4.64593714622611       -3.01547672297825        0.65645906157174
H            4.40401731995771       -0.36286435699523        0.11149558615784
H            1.23635952010249        4.16338249901730       -1.47662511670760
H            2.55855260850021        3.21623150042706       -2.05270888503488
H            0.50929357321144        3.63919737414853        0.82221942751289
H           -1.19731465338283        3.24327638488954        2.15877735330549
H           -2.12682529782678        1.82123878091251        2.12164258523493
H           -3.36152361736434        2.00769530271892        0.20450932473987
H           -4.32462813753574        0.64143456072984       -0.10770886702881
