28
 energy: -46.620349238754 gnorm: 0.000942112262 xtb: 6.6.1 (8d0f1dd)
N            4.03916304317022       -0.89934573051395        1.64675849538684
C            3.12119422965674       -0.90117011674441        0.95866878131328
C            1.95738757006178       -0.93338304702096        0.15140911052710
C            1.41089698983386       -2.14142992484382       -0.09797846819950
C            0.25909610176382       -2.49400713820342       -0.89070551544716
C           -0.96145562670970       -1.94013681558880       -0.91965264763530
C           -1.50020305996585       -0.80169555661151       -0.21063438002811
C           -2.85054166421016       -0.73585121557393        0.16882351093596
N           -3.74588503946296       -1.73748727183509        0.09873219881068
C           -3.16195759629600        0.57331646641166        0.66410300394964
C           -2.04690512906201        1.34038980949062        0.53750777813527
N           -1.86513230605839        2.62338572487229        0.92246899752765
C           -0.96124922792989        0.49971601520296       -0.04917769128149
C            0.26519512887484        1.01243761722810       -0.41175114768829
C            0.56775453950024        2.37031293652223       -0.77088371999745
C            1.91257854836829        2.42288211494380       -0.97622762066907
N            2.51950758446149        1.23821217719827       -0.64485056009631
C            1.57862453876753        0.37292377545376       -0.37521375635335
H            1.94131230291589       -3.00030611155315        0.30420424529392
H            0.39985855569998       -3.40669886435191       -1.45989262303882
H           -1.70171349532520       -2.45246313600763       -1.52987448579059
H           -4.69521621795230       -1.59073301898256        0.38921562315554
H           -3.45840197327821       -2.65739267269380       -0.18360779560333
H           -4.10793004533784        0.86465170860051        1.07923027952492
H           -0.92263701526831        2.97396536130500        0.97202225846054
H           -2.55397139584699        3.04476274209697        1.52189013829017
H           -0.14718827226884        3.13837179284785       -0.99799477788246
H            2.51014110419814        3.24365606465062       -1.32715448580034
