28
 energy: -51.449878788943 gnorm: 0.000885128899 xtb: 6.6.1 (8d0f1dd)
N            5.14829086228104        0.35254906759118       -0.17866521640463
C            4.01142481720839        0.18635616192463       -0.13805649421881
C            2.64366451151008       -0.08588770031264       -0.05719976008308
C            1.58331445618472        0.76799449719049       -0.39286715374246
C            0.36340359676177        0.12969758087114       -0.15851692315759
C           -0.85192865381684        0.83152698409750       -0.10112464346733
C           -0.99104567304699        2.22453970840824       -0.18779152808260
C           -0.06498909953832        3.23029762298385       -0.45521138910042
N            0.63425232694218        4.11762280242954       -0.67628058385517
C           -2.35129320755503        2.52402885440773        0.12494828830758
N           -3.06892300989130        1.46493068415218        0.36229040062704
C           -2.24741622552823        0.37319019109816        0.17411522271297
C           -2.87197339888945       -0.82275795282845        0.06653383434912
C           -2.32755562478326       -2.09219339644872       -0.35626594715233
N           -3.10671580790275       -2.81181040955156       -1.18879573423023
N           -1.25906431902627       -2.66419593041766        0.08306961089493
C           -0.10546675534294       -2.31989388804871        0.59517175953636
C            0.69089061900781       -1.22951254293021        0.32441678583117
C            2.11050527092179       -1.29411810302247        0.43820859368952
N            2.85863116087185       -2.36283054701060        0.80772260556435
H            1.71110981614219        1.77199745458271       -0.74770914387549
H           -2.77487396425736        3.51196819074710        0.17814995557737
H           -3.94826447693575       -0.78300094381045        0.17718795966956
H           -3.97464992069341       -2.43921474131702       -1.52849102380908
H           -2.77500876140954       -3.69460352759039       -1.53645593779370
H            0.33980407617247       -3.13164457052523        1.16887237404469
H            2.44646620665058       -3.09472175993236        1.35928285519700
H            3.84963947476929       -2.21623402563461        0.90921489886832
