28
 energy: -51.442197757619 gnorm: 0.000693567955 xtb: 6.6.1 (8d0f1dd)
N           -1.54038417917433       -3.94541788050047       -0.93318749147431
C           -1.04694735500994       -2.95748155586212       -0.62111517600773
C           -0.42961996822661       -1.73341117242974       -0.25003476133211
C            0.94765153397549       -1.81616400908698       -0.22246621939835
C            1.99967071177378       -0.97472798762411        0.17319792458329
C            3.19215285111771       -1.71032055816088        0.38484403260887
N            4.15992402092893       -2.30508929536113        0.55955155018165
C            2.14073510376494        0.42028824430251        0.34205817289196
N            3.30468476195830        0.84333838311091        0.87749628334496
C            1.26601604729488        1.45732650665215       -0.09318206758087
C            1.73510381531123        2.71763834273397       -0.45482431271214
N            0.73969331264893        3.58877938861874       -0.73399713634768
C           -0.38518153953679        2.96784019259569       -0.48449824220211
C           -0.18023791431532        1.59740260019170       -0.12080660641429
C           -1.25351033252702        0.76660534586845        0.12788906472349
N           -2.46362130467078        1.30841657740200        0.33875342497569
C           -3.33300048559959        0.30246448923141        0.45838588459787
N           -4.62255557759642        0.51843079627967        0.71629151694584
C           -2.70754515595988       -0.97072817716911        0.27665143350473
C           -1.37194350442143       -0.72309132617056        0.08123959732331
H            1.30559986497188       -2.81436700848487       -0.46985280470319
H            3.48982545301448        1.82723642673988        0.95481621415835
H            4.03826333156973        0.18690286161778        1.09273629687762
H            2.75461722941211        3.02899791598172       -0.60309926164161
H           -1.34240029407664        3.43223131682653       -0.61763882024120
H           -4.94451816652292        1.46571603669406        0.81756139778086
H           -5.26921439077941       -0.24581074858601        0.79681172644723
H           -3.20393552362535       -1.92079569561126        0.30032892210958
