25
 energy: -43.462158994104 gnorm: 0.000440432139 xtb: 6.6.1 (8d0f1dd)
N            4.13043221612323       -0.40546912319414       -0.04030359537811
C            3.00404048996941       -0.18184912330908       -0.03431098669936
C            1.63371631378932        0.21781179280024       -0.02380925521722
C            1.44302141388708        1.63696993938264       -0.00311505476332
N            2.59131489007044        2.35573467918873        0.05229940097759
C            0.27914428627795        2.41451891346821       -0.04988349989408
C           -1.08286438598202        2.18710624136819       -0.07691800436076
C           -1.92564862144830        1.09029994252174       -0.03720047034772
C           -3.32339942666930        1.26886524592095       -0.02506300566518
N           -3.99177746357174        0.11956339132441        0.03973634575234
C           -3.08699650394919       -0.85477623274957        0.06175973573896
C           -1.76107649406385       -0.37326246789685        0.01676430863879
C           -0.64914878479846       -1.20371932407870       -0.00025693716371
C           -0.69868753970194       -2.59802492602733        0.00530315619012
C            0.61571209384927       -3.05760179783525       -0.03464920298111
N            1.50629995457183       -2.06982977445311       -0.05749266181171
C            0.82463023308945       -0.90720256166928       -0.03473738104696
H            3.48677198550328        1.89657333493066        0.07415120293458
H            2.56171502842952        3.35998127484947        0.05784946127509
H            0.51912686478305        3.47416704803041       -0.06303705070565
H           -1.65059143715974        3.11325458015646       -0.12139842151581
H           -3.84809757810279        2.20679270529374       -0.05403624336820
H           -3.40444768180292       -1.87880711488238        0.11170425825518
H           -1.57583068138277       -3.21139206274452        0.02590483314046
H            0.94838232138927       -4.08044103199575       -0.04864811678405
