29
 energy: -55.962043876441 gnorm: 0.000656746023 xtb: 6.6.1 (8d0f1dd)
N           -3.75040399785770        3.09117486017290        1.08718661074222
C           -3.02198170967386        2.28661208705928        0.71229966173797
C           -2.12318317750658        1.28043607697946        0.27239776309946
C           -2.66293946384363        0.01743707652892        0.35877751005794
C           -2.22158980088021       -1.26169464403430        0.01435315243040
C           -3.10557088770183       -2.33816967910832       -0.09399221096933
N           -2.48308236328138       -3.50169665870547       -0.36936048189967
C           -1.19384799830688       -3.25098676672673       -0.37484661102337
C           -0.90610459036844       -1.86576576082057       -0.16446367831359
C            0.37918946725372       -1.40190183134327        0.00131073011796
N            1.37611117946800       -2.29328314213419        0.15257459013654
C            2.50457693113829       -1.61741506820762        0.31716175306983
N            3.67433851788062       -2.19955511132408        0.55555983175425
C            2.29136399702580       -0.18988737543360        0.20761178671478
C            3.32857518453560        0.72223281751899        0.39446407355834
N            4.25190026791834        1.37080014894303        0.61579046769444
C            0.92861799162581       -0.01248650014389        0.00207242773235
C            0.37344291314139        1.23395989573872       -0.37546186187323
C            1.35419243140011        2.10650588898646       -0.91422484969453
N            2.10447568458011        2.81448922644607       -1.41992919686930
C           -0.90645178039497        1.80845308752194       -0.29631014705487
N           -1.02698360004252        3.07574361738026       -0.75206124196869
H           -3.68973848604921        0.01802023280814        0.71759203582464
H           -4.17663449955732       -2.30319455307688       -0.00833650135548
H           -0.46199971695207       -4.01673868565569       -0.54476826520173
H            3.71900605353536       -3.20228713704515        0.62156048322380
H            4.50216917059298       -1.64226836686338        0.68642184990693
H           -0.22015117960155        3.57593838316928       -1.08967746363100
H           -1.89656833437914        3.57255502977064       -0.64904147394625
