27
 energy: -50.946315457756 gnorm: 0.000550998051 xtb: 6.6.1 (8d0f1dd)
N           -4.20289409786812        1.70533261641813       -0.82328074400703
C           -3.18991826470559        1.23796777713407       -0.53675439150215
C           -1.96398133435730        0.66762381037197       -0.16719931045514
C           -1.13512912709883        1.49707772543787        0.68157857240670
N           -1.75717946049600        2.19670645807747        1.65330159118944
N            0.11819156453115        1.74783448981151        0.49211532440780
C            1.19178852300957        1.19194717093522        0.03632785016791
N            2.26886575844180        1.86810230152916       -0.34030650632107
C            3.24193620887645        0.93177377844730       -0.39359161683080
N            4.49085603062202        1.24114520469514       -0.72259479778657
N            2.88134063713035       -0.33692098045127       -0.10062096903414
C            1.57114358955608       -0.27441977950908        0.10448676679066
C            0.72644335870022       -1.35593790440381        0.25150009026976
C            1.17111450282942       -2.66854635005425        0.59409756859622
N            0.18434369672515       -3.53001557754548        0.63266670654536
C           -0.92315564545407       -2.86806410863214        0.22329103442352
C           -0.69190331809850       -1.51667292050910       -0.00246597232076
C           -1.70819229498555       -0.65126904511037       -0.53888065992779
N           -2.57803201945247       -1.24753123655775       -1.38242164072704
H           -2.76168084444577        2.20440537623797        1.70309718534953
H           -1.23716205472519        2.90320859651135        2.14603105245104
H            5.18957477341732        0.51980885560596       -0.72479109725017
H            4.71244586586814        2.18843913454094       -0.97112119654702
H            2.17619649601043       -2.93126320435206        0.86206266330768
H           -1.86160257953698       -3.39318635865470        0.17613335667888
H           -3.40554521461432       -0.76012697544397       -1.68501378320504
H           -2.48996909177918       -2.23042808093022       -1.57073298526953
