29
 energy: -46.354237246017 gnorm: 0.000735861427 xtb: 6.6.1 (8d0f1dd)
N            4.68192280562151       -0.50150812547412       -0.39643967938699
C            3.57554390254510       -0.78086243507238       -0.23482946033024
C            2.23213035865693       -1.09552021483175       -0.06084464728864
C            1.70733667325426       -2.33937980098799        0.24943856134804
C            0.31670674915093       -2.23742628053432        0.34362361065412
C           -0.08899622068349       -0.92025760888182        0.12815865468962
C           -1.43288380067153       -0.53767168426283        0.01849719931292
C           -2.48107215576139       -1.45364305112091       -0.19335929715812
N           -2.38471639979459       -2.78624314300047       -0.53376693795772
C           -3.71704301049753       -0.79683394863329       -0.00927895513655
C           -3.47899985365812        0.51484109274542        0.31697292455283
C           -2.08513973862495        0.77248701299940        0.27573841520695
C           -1.65280262946850        2.06690167085482        0.42408369951854
C           -0.46491107974073        2.77362301980296        0.22675331235015
C            0.82277721640932        2.43764658121861       -0.15465231565374
N            1.65449369762180        3.49023160045363       -0.42248652837239
C            1.47256363501868        1.17551314031148       -0.28401196906217
C            1.15453243385494       -0.13178722962902       -0.08238496887801
H            2.28178449086047       -3.23659592128042        0.39962743700357
H           -0.32655154780011       -3.04512555736429        0.63290845253075
H           -3.23116081468200       -3.17025197779768       -0.92833499050370
H           -1.54935372391012       -3.04077717180738       -1.04146747543867
H           -4.67931618023690       -1.26601663117165       -0.11418733391583
H           -4.22657749232381        1.26281742991391        0.50819012525288
H           -2.47184464823970        2.73240328703496        0.68509197000721
H           -0.59411744496358        3.84526502972262        0.34943721942080
H            1.35008197485265        4.42837547835672       -0.23146013854863
H            2.63950871130797        3.33633950556071       -0.54349405941189
H            2.52738632590252        1.30332313267453       -0.52320799120473
