31
 energy: -54.616594547619 gnorm: 0.000712889094 xtb: 6.6.1 (8d0f1dd)
N           -3.35917222905068       -1.91429980738776       -0.99264032047199
C           -2.35283585474168       -1.63730975314446       -0.50603213356853
C           -1.05142079899125       -1.37673301038680       -0.01900592946369
C           -0.34799992782951       -2.55737472157569        0.35424723867741
N           -1.11786322845845       -3.67916721834342        0.41700590410882
C            0.99130665537264       -2.76829590367286        0.70366252893239
C            2.15838935307690       -2.03869391360558        0.61108109392951
C            2.53154148801734       -0.75970249610620        0.22955632707701
C            3.89541829588597       -0.44269297723798        0.15085692559580
C            4.07676412766933        0.88995782475907       -0.18991435267579
C            2.82500071153065        1.48921443802419       -0.30692901808795
N            2.57661618667981        2.76691568683835       -0.63762175372993
C            1.80262355565618        0.49110877392068       -0.05980704434245
C            0.47241185371087        0.82299477980810       -0.01780029490461
N            0.12634174968886        2.14339177072300       -0.10851509931118
C           -1.19062138949862        2.23270298175926       -0.05065356497617
N           -1.85305546223458        3.39475192100078       -0.07156489388073
C           -1.80645089895060        0.94052919576483        0.02936208700028
C           -3.18318142900026        0.81712462095115        0.19013736904247
N           -4.31869398145884        0.87897023354061        0.37201214999727
C           -0.77002269365891       -0.00055269471611        0.05446089837025
H           -2.08664907694490       -3.65165477870460        0.14817822439125
H           -0.69287150024604       -4.57039694998111        0.59828757170730
H            1.15793811546302       -3.78616541552654        1.04357729638719
H            3.02820163689974       -2.63357978066926        0.87719759893466
H            4.68917925098499       -1.14712004181336        0.32661989012045
H            5.01897666468514        1.38716571956618       -0.33030738745253
H            1.60385881703524        3.04828648117713       -0.53017838995915
H            3.33370420539055        3.42689201487471       -0.66158942129000
H           -1.34904593617776        4.26297073042796       -0.07588262465416
H           -2.85467897700522        3.39260503721925        0.01506704929528
