31
 energy: -54.607529781258 gnorm: 0.000331197408 xtb: 6.6.1 (8d0f1dd)
N            4.69318202079277       -1.67336096146646        0.28523863461209
C            3.67680478166337       -1.13959167114577        0.18995630594842
C            2.47575406105142       -0.44618912758150        0.08435481154642
C            1.19555947479542       -1.00379730360154       -0.12109119893571
C            1.06967966503476       -2.34316099334272       -0.45676018837788
C           -0.07393836761800       -3.12223530744813       -0.64914132735529
N           -1.24083712786800       -3.03296118817564       -0.10508932269395
C           -1.99952565913468       -2.13383330015869        0.45775864282010
C           -2.14015973936871       -0.80230111856131        0.12366900513917
C           -3.34377944993732       -0.06919424013071        0.27014887417128
N           -4.51848473025387       -0.54541690647315        0.76246027236537
C           -3.18804178216269        1.18957997072494       -0.32631820592374
C           -1.87661199295029        1.33006036365844       -0.76029058994065
N           -1.44240398098483        2.32911514051258       -1.56776076105781
C           -1.13115240001584        0.14592180335927       -0.40859855788426
C            0.23322361499846        0.13162825127747       -0.18579006895116
C            1.01828209334118        1.31487734511586        0.01260568424221
C            0.59508542662891        2.61660818094062        0.24804843611178
N            0.33003495384855        3.71817696504556        0.46854800713176
C            2.36729697934386        0.96118150114362        0.20676846888822
N            3.38039892750338        1.80547949248743        0.46021006207595
H            2.00869214341458       -2.84656558784482       -0.65801363776777
H            0.05330915172579       -4.02524317253659       -1.24278511351251
H           -2.74430745154598       -2.57355420164975        1.11954373822357
H           -5.24633751626860        0.12369639583268        0.94613434212608
H           -4.50117322262016       -1.35989414024094        1.35143973283800
H           -3.96027390200162        1.92918456023148       -0.42893224393597
H           -0.45628296676848        2.41174125966907       -1.74755843840359
H           -1.95221194371582        3.19661509181308       -1.54879652966277
H            3.18900694043932        2.77761617791828        0.63361717593847
H            4.29028134303474        1.43786148432468        0.67959148451919
