34
 energy: -62.583447928128 gnorm: 0.000783080904 xtb: 6.6.1 (8d0f1dd)
N            2.48872739627818        4.27554528660580       -0.94561740687930
C            1.94743973306310        3.31302704844747       -0.61837384689276
C            1.31999842055519        2.10853188982292       -0.23522387695931
C            2.22418818928497        1.04928228619622       -0.20796468619357
C            2.20190110648375       -0.30335857719779        0.06505899239253
C            3.42944814787439       -1.02452020621026        0.17911485301314
N            4.66808260575237       -0.49672735634012        0.22018344808453
C            3.17112330320089       -2.40005514702913        0.26076407817490
C            1.80634303465800       -2.60285614203007        0.17995694285110
N            1.15777382359990       -3.76856783485998        0.21925484841507
C            1.13443188842355       -1.30609036932670        0.08936062366006
C           -0.22338385451511       -1.21908930555209       -0.04339218208884
N           -0.94730251348810       -2.38268211657098       -0.22624036562305
C           -2.21572542474267       -2.06336925638926       -0.32570050565348
N           -3.19903417494568       -2.94505861271189       -0.54141256483303
C           -2.41965419501360       -0.64167529780044       -0.16418854882864
C           -3.68376835047156       -0.07868487302741       -0.31308410582767
N           -4.76851832342211        0.24973079067161       -0.51484234900619
C           -1.16318202087641       -0.07421766603759        0.02319332585173
C           -1.03808899983719        1.29224791983605        0.38509582205393
C           -2.22112999483794        1.80564378137922        0.96134085062710
N           -3.12752341294714        2.24655991713072        1.51832489989355
C           -0.03087535898788        2.25855334322987        0.20587192946641
N           -0.38797303041730        3.53878448454713        0.47165015314030
H            3.22548651331539        1.40688749291822       -0.44221682598559
H            4.81904837508513        0.49549641496728        0.22579753988064
H            5.46048293955937       -1.10282507314659        0.32642266745021
H            3.91660789328018       -3.16707035176426        0.36074527964582
H            0.15225323946902       -3.69397394503443        0.04268438470092
H            1.66997108902992       -4.63237685593390        0.20919700771047
H           -4.14452249873435       -2.61748024791831       -0.63643274628797
H           -2.98787267061445       -3.91749418982799       -0.67374906883590
H            0.26946117355074        4.28739474566856        0.33125095343605
H           -1.33257036434632        3.75653051427763        0.74299898198817
