25
 energy: -43.477490450192 gnorm: 0.000679974573 xtb: 6.6.1 (8d0f1dd)
N           -4.14066573241044       -0.47462755044955        0.00262455333043
C           -3.02312622797924       -0.21041348220956        0.00176288764851
C           -1.66285336018737        0.20839263137167       -0.00065499701317
C           -1.47593919336175        1.61790403408563       -0.00455328955777
N           -2.62525275693504        2.34051241117054       -0.00638351350970
C           -0.30782416674817        2.40187076859484       -0.00713892394179
C            1.05419276872961        2.19659675107706       -0.00536560190667
C            1.93430442436816        1.11952977083679       -0.00063973504644
C            3.31434131510075        1.34359469123737        0.00097396149453
C            3.99464704249126        0.12015924138797        0.00554554072028
C            3.06713363344899       -0.90245629220889        0.00663065187589
C            1.76799579126419       -0.34914779657823        0.00299853398979
C            0.65240175961468       -1.16011802652686        0.00278144335303
N            0.79847537717986       -2.49979256011096        0.00525115442111
C           -0.43143434807378       -2.99157271226932        0.00509941828777
N           -1.42180584448910       -2.10252408786210        0.00307377590710
C           -0.82094999619178       -0.89988331418859        0.00124389467409
H           -2.59732515005525        3.34441581772015       -0.00912147145614
H           -3.51978312901503        1.87935177331239       -0.00482236818586
H           -0.55988857536712        3.45911317555890       -0.01100687377974
H            1.60105089070990        3.13632696015860       -0.00807353028703
H            3.77805644417438        2.31370157115934       -0.00090192925841
H            5.06324040788645        0.00319668294605        0.00776592782602
H            3.25706876683218       -1.95780098401561        0.00972054450001
H           -0.62277810218631       -4.04927652299764        0.00652352101415
