28
 energy: -52.243446780773 gnorm: 0.000988190926 xtb: 6.6.1 (8d0f1dd)
N           -5.78848236235291       -1.30900741231053        0.77004324850708
C           -4.71367549608687       -0.97683457037326        0.54146535073599
C           -3.40812050333368       -0.55648089287366        0.25741697009542
C           -2.26706253209740       -1.32563613577772        0.29484060553776
C           -1.14452412676741       -0.50114188207870       -0.01325858106134
C            0.13688022493308       -0.99861119856399       -0.18498396112448
C            0.39397631791412       -2.36622772532448       -0.43711110747682
C            1.74037439206141       -2.55773951985843       -0.61712080557122
C            2.42118020961389       -1.32966806720224       -0.38527945164778
C            3.80657961044539       -1.17422346973632       -0.50706600340375
N            4.93993845349366       -1.08972871563603       -0.67265911865831
C            1.48133165970482       -0.33681778678176       -0.10802363761908
C            1.81384801128050        0.90143076190278        0.47850874948504
C            3.07630193181698        0.99171283357171        1.11578909986081
N            4.05485042002988        1.10690256766493        1.70279880736429
C            1.05680844706958        2.07469340989718        0.57733270347725
N            0.06667023843458        2.45988828502752       -0.16730720425832
C           -0.95243254181898        1.96436519049669       -0.78823193697136
N           -1.45352736381423        2.64286980275264       -1.83332564221784
C           -1.69296889737298        0.82592248215786       -0.29865864956107
C           -3.05341225881736        0.76853014368531       -0.16224105694730
H           -2.21686958315766       -2.35651619374063        0.58640714599220
H           -0.36386333020047       -3.11299173549492       -0.57326382695707
H            2.22601160019469       -3.47505589963705       -0.89674597639155
H            1.43664816567727        2.84714005776922        1.24026615929579
H           -1.00644963372897        3.49101523713628       -2.13902937292992
H           -2.32818765504280        2.36752778751557       -2.24429057924506
H           -3.75309881457849        1.57105135741207       -0.30723712560940
