28
 energy: -52.252653017638 gnorm: 0.000885357016 xtb: 6.6.1 (8d0f1dd)
N           -1.11866701076002        5.23570993508788        0.00049494602135
C           -0.82159882132887        4.12840393152002       -0.00310491187272
C           -0.45401743403773        2.75306272368098       -0.00256163764613
C            0.94394232567402        2.57900418903973       -0.00679090297951
C            1.79146452603364        1.50080741816984       -0.00709956558089
C            1.63940663699386        0.10883083139998       -0.00206359204627
C            2.76197244741885       -0.72368581817151       -0.00128209935002
C            4.10977942544841       -0.37742599374218       -0.00640504364966
N            5.23490811855338       -0.13830982278388       -0.00444497620277
C            2.27088170443780       -2.07452085959188        0.00491961996392
N            3.01609876646384       -3.17709388385750        0.00869224052826
N            0.94185458737391       -2.10447779929913        0.00635173160355
C            0.48981215539966       -0.83636786518920        0.00214267269916
C           -0.88669987819040       -0.65490903011301        0.00108159305179
C           -1.73281931486170       -1.77958839872758        0.00182644541016
C           -3.05932163209729       -1.35501866807189        0.00119646081202
C           -4.19116974784155       -2.18366169181428        0.00209160172623
N           -5.12050951918464       -2.85674331690975       -0.00164794708160
C           -3.07806231086388        0.05193016867650        0.00034719268344
C           -1.76761363666843        0.53509031500181        0.00003109895710
C           -1.55762291620047        1.90974786286723       -0.00006261529650
H            1.46657321024166        3.53154698560568       -0.01039038339534
H            2.84146433583004        1.78131152658295       -0.01112886788139
H            2.56182507713469       -4.07428741910941        0.01314189767395
H            4.02004239657617       -3.11763235055091        0.00746939512887
H           -1.38598719758463       -2.79397909016756        0.00274525179545
H           -3.96594611161890        0.65718116236045        0.00004309460007
H           -2.49640119464137        2.45998182980658        0.00150235462748
