29
 energy: -50.362643641470 gnorm: 0.000502410421 xtb: 6.6.1 (8d0f1dd)
N            4.32474694223250       -1.41998633359763       -0.79416057856982
C            3.28819657429498       -1.04737255787863       -0.45504304327084
C            2.01462482120533       -0.59220839368675       -0.05941276042062
C            1.27944133383170       -1.57770403713884        0.68712789083296
N            2.07164862063570       -2.46054459152942        1.36754534233843
C           -0.07783252163743       -1.84966183834183        0.72606752501217
C           -1.22774254829166       -1.24868633711196        0.21294544780956
C           -2.44143999524784       -1.90563751642479        0.10535540190664
C           -3.38921748587964       -0.94251273012239       -0.30677936877042
N           -4.68251163496175       -1.14639389047430       -0.58677679946479
N           -2.85742832064969        0.29114386866831       -0.39000238549567
C           -1.56021428510650        0.17794956567136       -0.10082842139288
C           -0.78000538018054        1.31038696105518        0.05296431940756
C           -1.34664182662627        2.59979946291578        0.28735873881708
N           -0.42925743465100        3.52163152634832        0.46006141942581
C            0.76449535098152        2.92170384965666        0.24835029330975
C            0.64538520101859        1.55453371489960        0.02333698649545
C            1.74685491224475        0.74121842560743       -0.38529034879697
N            2.68322512122687        1.40274063982522       -1.10519956734376
H            3.06919999911849       -2.43796830693474        1.23823963183837
H            1.67058049848508       -3.31278097116742        1.71888631062129
H           -0.29691827152796       -2.80121462420824        1.20526340726417
H           -2.63311425811757       -2.94863157887542        0.26757752309088
H           -5.08709706040853       -2.06305280028540       -0.53465871605961
H           -5.23761921695238       -0.36371036240425       -0.88404575951852
H           -2.39400299251034        2.80480825242265        0.39440299981606
H            1.66829883661869        3.49932564518297        0.34196211745969
H            2.54526022232074        2.37634932499566       -1.30829096639423
H            3.55801218783477        0.96581704883348       -1.34408241214847
