27
 energy: -46.941532275311 gnorm: 0.000611413126 xtb: 6.6.1 (8d0f1dd)
N            3.13917455317472        2.57647812087361       -0.13448417953420
C            2.52968833645418        1.60213456809206       -0.05166739689661
C            1.92916285981332        0.35107875420072        0.02381147112151
C            2.69204697055052       -0.85105121325914       -0.11939839076857
N            4.01227494761617       -0.91457783990807       -0.31745175753207
N            1.92863056667951       -1.94016386023436       -0.03386018456247
C            0.65624326333031       -1.53366498178564        0.12692561261685
C           -0.27330530963720       -2.49827607520182        0.47084824432156
C           -1.65712592014462       -2.42466491394683        0.62119140619597
N           -2.51567902077207       -1.64357672519535        0.05147689264005
C           -2.56882682067036       -0.45648731853520       -0.48723907441572
N           -3.49104985926497       -0.27920394831646       -1.45624652980187
C           -1.89604669784490        0.69589556379557        0.01231450196907
C           -2.48890258059925        1.94005969388042        0.16574445337434
C           -1.51846692474448        2.85108865381360        0.61756598374699
C           -0.30360421997772        2.20656603387129        0.67563406200025
C           -0.47874370479284        0.84424154319680        0.33240841208948
C            0.58713536247391       -0.03871195612374        0.14357435487781
H            4.44924664204166       -1.81268352122322       -0.42262672928158
H            4.55631603894575       -0.07115178911803       -0.36926962851135
H            0.17271110610279       -3.46058792486396        0.68828308959679
H           -2.12507976907167       -3.22922670609862        1.18481383655442
H           -3.68787585669860        0.64720019168736       -1.78922507811730
H           -4.08301221754316       -1.04520130444516       -1.72710752613782
H           -3.53229166837385        2.16046911150708        0.02309952893136
H           -1.69891101834300        3.88389216574994        0.85307659072780
H            0.62833933419578        2.64796934008742        0.97151462159520
