30
 energy: -54.109872382706 gnorm: 0.000586839524 xtb: 6.6.1 (8d0f1dd)
N           -3.48557259328869       -2.62878082459266        0.25652484258092
C           -2.85871973806830       -1.66353250740983        0.18361953469816
C           -2.25476412195473       -0.41919849436769        0.07013217591649
C           -3.04310915641470        0.76012572480503       -0.19157247765081
N           -4.37571933354568        0.76805056529445       -0.31249868035520
N           -2.30255822537708        1.84868529350149       -0.29286172607517
C           -1.00652120528420        1.47309485696888       -0.10727499955370
C           -0.09393745137076        2.47599864403551        0.03565857158907
C            1.30944682363265        2.44894055504315        0.30409279345390
N            1.79103361869500        3.52163876552699        0.97972254539143
N            2.21194310104613        1.64150116028696       -0.15750208287607
C            2.31036538756896        0.39368994813710       -0.55568073493523
N            3.37525482237343        0.14475332159811       -1.36003195016244
C            1.59037313068282       -0.70977289250143       -0.05665349096628
C            2.12610456833425       -1.99897693160255        0.12696695927154
N            3.42517140371058       -2.41588647765622       -0.08171185121407
N            1.20284083645240       -2.87458361872377        0.56820575984835
C            0.05439978798443       -2.21678340807779        0.62332394290958
C            0.17886360247631       -0.85234772821260        0.27336133062781
C           -0.91973827096932       -0.00795073115630        0.08918404895212
H           -4.84284163668647        1.62659265362121       -0.54177065303677
H           -4.88919976665820       -0.09395139939282       -0.25421543465651
H           -0.53547256811753        3.46519951611377        0.02895879742397
H            2.76436277575942        3.54362403824691        1.22777661396288
H            1.16172523707031        4.18765491182040        1.38855339697029
H            3.44866168571497       -0.75855320636976       -1.79538457498643
H            3.85044945543944        0.92929262393528       -1.77205493844290
H            3.59108662275505       -3.32098310838043        0.33626909425469
H            4.13823958315902       -1.73494509408247        0.13883779971735
H           -0.84003161871925       -2.71983758530864        0.93765397844412
