34
 energy: -61.789464188975 gnorm: 0.000652345410 xtb: 6.6.1 (8d0f1dd)
N           -4.43048083703919        1.90324513683935        1.28673092903859
C           -3.49901307663590        1.40979335884706        0.81807353640237
C           -2.37358629681560        0.82457302815358        0.23631671941374
C           -1.80788252587472        1.54408242008200       -0.91574381333431
N           -2.69629720372906        1.88223850874758       -1.88223351337116
N           -0.59526525989317        1.91656373694464       -1.05154393413024
C            0.53516979598780        1.67297858387602       -0.38178251318412
C            1.46698022268142        2.64086486692164       -0.08540684331295
C            2.67219857155785        2.00688839330767        0.29813083392124
N            3.80558014024014        2.63172043625371        0.67124198641737
C            2.51204687443667        0.60882654329142        0.19385545757099
C            3.51358834888682       -0.26975418938853        0.56709914020369
N            4.39729158475922       -0.94571022826940        0.88384522612624
C            1.15338657285264        0.34513518626889       -0.16452056792025
C            0.49075415452250       -0.86249141985823       -0.22683336869695
C            1.09037234358746       -2.16572635981471       -0.56541250898161
N            2.31455571374624       -2.36366393349459       -1.07462291549540
N            0.20374395526814       -3.13820622933420       -0.53673543909479
C           -0.96525854639931       -2.58232256840425       -0.11740825860650
N           -2.03208984883714       -3.39433082758212        0.10354280439190
C           -0.88256547607110       -1.18845753915633        0.04083922243800
C           -1.94647328355238       -0.42030169353224        0.64127088565894
N           -2.68279328831474       -1.08517129881204        1.58607748216913
H           -3.68015208558617        1.84383147869604       -1.67719723100447
H           -2.38525024619348        2.50334274972141       -2.61033128954450
H            1.31692785770388        3.70116179540164       -0.15028706951899
H            4.58757395621202        2.08695923836091        0.99265123205380
H            3.79682015519594        3.61945510009403        0.85197351784825
H            2.55949048725356       -3.32293924909856       -1.25858118808767
H            3.06299264400481       -1.72619129849674       -0.85426377019718
H           -1.94417199711328       -4.31933573113303       -0.28462868809079
H           -2.94911243963720       -2.97805532937995        0.09641573732537
H           -2.24860782722662       -1.85591532361553        2.06483345481492
H           -3.36691912817854       -0.55244657323603        2.10042074677681
