32
 energy: -53.521357610942 gnorm: 0.000421645577 xtb: 6.6.1 (8d0f1dd)
N           -4.34800231869223       -0.42668756135739        1.11832577160454
C           -3.29435269703085       -0.34224102994948        0.65550506971077
C           -2.01333591877927       -0.25206099355956        0.09068959631794
C           -1.70827671967436       -1.39058853819000       -0.78196904928430
N           -2.75550874795120       -1.73153959108742       -1.60734370226941
C           -0.59434669564689       -2.16636139766559       -0.79076945718668
C            0.64679292349546       -2.05606921471498       -0.10815618508145
C            1.47929004075382       -3.13622087793562        0.11431158465714
C            2.69704705204357       -2.62340531820449        0.60350429418125
N            2.71071048655518       -1.31111100763874        0.63403672320154
C            1.46274761339447       -0.88241858383543        0.22114621857598
C            1.23022517111986        0.45778407779807        0.02471828161465
C            2.36270982889992        1.41094281428068       -0.11794588103371
N            3.63304697239992        0.99973067727843       -0.06201201658613
C            1.85122287279029        2.64936904389299       -0.39747635123714
C            0.43555557373413        2.56115236038702       -0.35172285975558
N           -0.38257148698414        3.63166751968537       -0.51905225135182
C            0.03687717391903        1.23142630735740       -0.09637980741645
C           -1.29603499546778        0.89495231750714        0.33728056923757
N           -1.93764904151830        1.91257212409087        1.01448483795107
H           -2.73596675535490       -2.64454364209184       -2.03219421279293
H           -3.66927942314196       -1.37394410995941       -1.37878871307949
H           -0.66669471551447       -3.06482210421356       -1.39737296188801
H            1.24327523218608       -4.17252553344373       -0.03610419030302
H            3.55574590372197       -3.18742730065555        0.92655654077048
H            3.74037647429711        0.03874528517646        0.28927892545436
H            4.38380021653608        1.66623801108911       -0.09661069794500
H            2.40554933085577        3.54628905501732       -0.59984338124201
H           -1.36295341881340        3.46002987638883       -0.67124870806270
H            0.01079744306866        4.45852871953197       -0.93494386424162
H           -2.80720399595112        1.67141679803471        1.46693076834307
H           -1.35282747215039        2.56062283658858        1.51657802763649
