28
 energy: -51.463688879691 gnorm: 0.000503434794 xtb: 6.6.1 (8d0f1dd)
N           -5.37272314468228        1.02616947613816       -0.11354605153468
C           -4.29005237984917        0.65576868962719       -0.01148025622394
C           -2.97951591126030        0.18194313296675        0.11712584113002
C           -2.61448431513610       -1.05188434169098        0.70399764841340
C           -1.24269055313870       -1.23107394904249        0.59258453533714
C           -0.66372245304984       -2.41918073181451        1.10384591589958
C            0.46662399167080       -3.10674319884859        0.80374021655565
C            1.47513599367889       -2.73325389400280       -0.14926619288989
N            1.96281401351532       -3.70487379615812       -0.94654220261403
N            2.06290729959601       -1.58395770995140       -0.21960236782309
C            1.87602609176221       -0.32810454687893        0.00878796903764
N            2.92186663902112        0.49110328887980        0.15809534526119
C            2.45578904677223        1.73495275669087        0.00180963234302
N            3.24899268143846        2.80106173905506        0.07549430818484
C            1.03984924587493        1.77106611107105       -0.24017062142105
C            0.35751273832425        2.96675755096741       -0.43146320589625
N           -0.11327654976347        4.00528480862559       -0.59321287610791
C            0.59687639972872        0.44894143357142       -0.13775598261486
C           -0.71331864121287       -0.00896605215408       -0.03437735084842
C           -1.82026388966109        0.82459709688424       -0.29894979420812
H           -3.30507263327743       -1.75366529799268        1.13573113577311
H           -1.34005534351180       -2.94190188817412        1.77357195611121
H            0.58700821846998       -4.09199447245999        1.23451333102951
H            1.59594452176888       -4.63805570293841       -0.90690146952645
H            2.70089707883706       -3.48559102359583       -1.59312453907131
H            2.87747765405382        3.72296424286016       -0.07904310391614
H            4.22389391831200        2.67172670548970        0.28355629408932
H           -1.77212781128211        1.79429697257473       -0.75672558696948
