26
 energy: -47.996607644184 gnorm: 0.000388466613 xtb: 6.6.1 (8d0f1dd)
N            4.75013401136858       -1.50800894074779       -0.02118617875372
C            3.67455613226623       -1.11089730836894       -0.01510673024483
C            2.34134282079622       -0.61405410154738       -0.00807221944000
C            2.28373076813624        0.77138902462694       -0.01095219190223
C            1.25909083333538        1.70961246083116       -0.00637591053110
C            1.54771601299361        3.08001194673745       -0.01113178794242
N            0.44612319000334        3.85069478028190       -0.00558182902224
C           -0.58848896653935        3.03927253997510        0.00274730151529
C           -0.20989631748731        1.66085698804903        0.00322619813427
C           -1.16308187728674        0.66910184996932        0.01119344714014
N           -2.45921649947509        1.03937591608219        0.01838946309808
C           -3.19434969674188       -0.06717665250390        0.02501303837023
N           -4.52483197254535       -0.03407801705403        0.03305182202002
C           -2.37942375975578       -1.24862069206845        0.02238487540773
C           -1.07439096194897       -0.82870797948247        0.01361937961829
C            0.01473433906451       -1.74725607519600        0.00915291430258
C           -0.41987574961195       -3.10302816175728        0.01528068550943
N           -0.75142511509770       -4.20091955056786        0.01989279245844
C            1.38908690124896       -1.65451937772787        0.00048061925476
H            3.26698321838206        1.23656981085578       -0.01834415994704
H            2.52423571110757        3.52965299508177       -0.01835236429971
H           -1.59812176935866        3.40118796838010        0.00854350834252
H           -4.98837931662072        0.85862287646553        0.03413457078657
H           -5.06401233905711       -0.88175769294264        0.03789127480399
H           -2.74797319806391       -2.25549125987960        0.02662687652304
H            1.86852956108750       -2.63240352589248       -0.00002229810224
