24
 energy: -38.942531596270 gnorm: 0.000780752337 xtb: 6.6.1 (8d0f1dd)
N            2.08527127455624        2.30026859977014        0.64272255746654
C            1.98569640046232        0.99499494554260        0.23884666998531
C            3.05663402872736        0.18909857259817       -0.14322845487303
C            2.56774693393526       -1.05985615944533       -0.50194407017958
C            1.18100444433385       -1.12466035557920       -0.29798406765533
C            0.53424044021961       -2.34539355676193       -0.46139211130946
C           -0.67159158982877       -2.85726400444603       -0.01179370544939
C           -1.74811957016765       -2.17470103708928        0.55469978815699
N           -2.17979067397541       -0.99161163724174        0.26955085213010
C           -1.81037683678445        0.15742841707545       -0.17075067018956
N           -2.69879424684730        1.02616171370398       -0.66498713621554
C           -2.08922180258977        2.21783929144812       -0.67354581554229
C           -0.78148222114709        2.19694358744920       -0.20596050044994
C           -0.46839242959198        0.84935170455751        0.02929359317612
C            0.77191731206462        0.25064384997130        0.10822719035763
H            1.36770697353045        2.63535935054914        1.26507244508137
H            3.01769693488401        2.61487022134676        0.86013659672965
H            4.08955621603706        0.48768286818562       -0.14031154932058
H            3.17016324292802       -1.88764776311171       -0.83053490217147
H            1.20081498011972       -3.10299206328312       -0.86447767371254
H           -0.76153061924039       -3.93608482723817       -0.02808823138570
H           -2.41711700231488       -2.73709536910758        1.20295546071597
H           -2.62572376393417        3.08076691985871       -1.03040870499415
H           -0.12214952857670        3.04040018254729       -0.18343259745106
