28
 energy: -45.836612241451 gnorm: 0.000936352805 xtb: 6.6.1 (8d0f1dd)
N            4.33009416044525       -1.46522423354820        0.21344402380621
C            3.11298732000034       -0.89627226013777        0.09670197326099
C            2.85225024316846        0.49178089593672        0.24640197998251
C            1.51318228390964        0.71124390957003        0.02082811783579
N            1.00955173899097        1.90800374339323       -0.18923720646080
C           -0.10841256655068        2.53791238119288       -0.07371238684708
N           -0.11899491217324        3.78371761285252       -0.63924137337634
C           -1.27760359435574        2.21280017262712        0.69807622973757
C           -1.91121874300643        1.01774901545833        0.81009952720622
C           -1.66643574755504       -0.25960381550844        0.26179526565910
C           -2.68277777612652       -1.22274427473762        0.17994988313870
N           -4.00152699640137       -1.10857109436816        0.54344893191953
N           -2.24040938842222       -2.41238227434283       -0.31361763483832
C           -0.94755334334358       -2.27731217775028       -0.49773323828027
C           -0.47111246052985       -0.96503034248987       -0.19289697310828
C            0.87440159741846       -0.64442617724676       -0.19211042028903
C            1.92552964557530       -1.56190084857505       -0.21797331282051
H            4.41814094853357       -2.46491564117905        0.16481044206217
H            5.09364416196641       -0.93592040986023        0.59510717515866
H            3.58767292439487        1.24463940974253        0.45260444171048
H           -0.99045774457826        4.26923634517607       -0.75289489762154
H            0.63621861621256        4.01084262128866       -1.26349472026868
H           -1.76572110540913        3.07431487451160        1.13742776300473
H           -2.84524894981742        1.05838553714324        1.36455298441230
H           -4.42481502200936       -0.19833050461986        0.46556452899858
H           -4.57030808149832       -1.86971467755003        0.20690569108713
H           -0.36741318980597       -3.08976538386127       -0.89360572084090
H            1.83641333176712       -2.62190717481761       -0.36339691292926
