29
 energy: -51.155656398614 gnorm: 0.000911393224 xtb: 6.6.1 (8d0f1dd)
N           -5.50545055051713        0.11277019248445       -0.47957985951528
C           -4.39336053732249        0.39454863388468       -0.39467494933270
C           -3.04935106831671        0.75158481241746       -0.30349050831104
C           -2.49699713932957        2.02189121311675       -0.71715637424774
C           -1.17060374096159        2.04622114894328       -0.44533697915246
C           -0.77311042514348        0.73947339644037        0.02833661458157
C            0.51111243877794        0.25920051257239        0.07931963082488
C            1.67636684576911        1.15611791704480        0.19691296511198
N            1.62325995168838        2.45153074738212        0.55271790760298
C            2.82052379062136        0.41676455110930       -0.01270587577179
C            4.13694415479479        0.86447103364404        0.04901670783916
N            5.22976849588308        1.22326211013616        0.09234810502247
C            2.42208874406021       -0.94946708058704       -0.27016891023337
N            3.32573253923124       -1.91546556879255       -0.51696698274127
C            1.03455269509611       -1.06861691992221       -0.15710053059914
C            0.39581237915582       -2.31513944138021       -0.47833076775287
C           -0.75874165065002       -2.87613673284766       -0.07026958951408
C           -1.70450638537103       -2.31377153902298        0.86136205256866
N           -2.18988938968919       -1.14806109749872        0.89884293764085
C           -2.01651396828099       -0.03833891236066        0.16930954776219
H           -3.07958058085992        2.80852473881700       -1.16119369293584
H           -0.50315064980707        2.84588576018370       -0.70334198298108
H            2.48560822432674        2.92640447664000        0.76245852600781
H            0.76424213849115        2.83815539844998        0.90210647652844
H            3.03323462664713       -2.85341052723202       -0.72639936616101
H            4.28824765525658       -1.66347906535685       -0.65942868543011
H            1.02168355067637       -2.95608153093354       -1.09430409329175
H           -0.95377600588167       -3.90224430708990       -0.35298444495790
H           -2.07862463644470       -2.99306219704048        1.62563294093826
