32
 energy: -53.520120554045 gnorm: 0.000600678117 xtb: 6.6.1 (8d0f1dd)
N            4.05289728530835        0.82218979887230        1.14916049097718
C            3.27012758058839        0.05265938536615        0.79025774303330
C            2.34846115198233       -0.88453039314956        0.34044244672938
C            2.59207969737696       -2.24744559551141        0.24929079642658
C            1.40513706250693       -2.88866441440597       -0.13355946427798
C            0.36785194300589       -1.97148245056952       -0.18965145181094
C           -0.92510190037083       -2.33266248021162       -0.67871131572856
C           -2.17052795272956       -1.90214278721203       -0.34903895072507
N           -3.25976305443834       -2.57622027911576       -0.86616891892045
C           -2.54030916312130       -0.93722466893021        0.67357863244838
C           -2.04596416715240        0.29173637098774        0.87464659037950
N           -2.61235226192937        1.12919533291603        1.84367730708183
C           -1.00971241417744        0.94941611639597        0.08027816898779
C           -1.08740819566029        2.29319730442591       -0.31443502300081
N           -2.16786164037843        3.09384003740305       -0.26864297573491
N            0.09094354158802        2.76135846296958       -0.83463344349234
C            0.95942628781428        1.78987244980559       -0.70006775911421
N            2.17875596040090        1.85206171515943       -1.23828719370741
C            0.33259776588501        0.56644059222602       -0.11016702397107
C            0.94902465226634       -0.65784966909180        0.06596144563887
H            3.53454137617688       -2.72513563065213        0.45014816184629
H            1.30708228272194       -3.94278792855772       -0.32089911479675
H           -0.89809895709648       -3.18395600671954       -1.35385064640932
H           -3.09741276362162       -3.16845400555710       -1.66382010587789
H           -4.14705242923228       -2.10290588378682       -0.84854331022612
H           -3.35979255518370       -1.26620529164946        1.30357220302770
H           -3.16865783357440        0.64115812963469        2.53207001330440
H           -1.95547577295216        1.77024196202901        2.26684613616067
H           -2.03202216210874        4.07320697987322       -0.44802316339755
H           -2.96628253781860        2.78531461457670        0.26076930764329
H            2.45328496405890        2.73677677205531       -1.63266026082775
H            2.90152132936462        1.22343317052414       -0.92446747556593
