28
 energy: -50.662432309682 gnorm: 0.000514902196 xtb: 6.6.1 (8d0f1dd)
N           -4.95192654132191        0.43816955444363       -0.96613043261136
C           -3.96582410491350       -0.08502500892495       -0.68682662860594
C           -2.77201980479208       -0.72568670741617       -0.36290955941342
C           -2.57822076676547       -2.11485586312667       -0.21585651682043
C           -1.27090931555521       -2.38423566182965        0.15215725932378
C           -0.54548270306978       -1.18547427700083        0.19988086781601
C            0.83017253082866       -1.06710988769176        0.27909764244093
C            1.69237641680492       -2.16864914705410        0.61850352231371
N            2.95968742585316       -1.87439626328803        0.51080668107191
C            3.02319070077947       -0.59267479879924        0.03404050517218
N            4.25076143620866       -0.05076444632895       -0.24367215576780
C            1.75766443053393       -0.01833397408987       -0.10311713797849
C            1.51244507319037        1.27492316810555       -0.67253619663532
N            2.40581990223786        1.72180809086766       -1.58670969793099
N            0.62488325392368        2.14387505172188       -0.28130619052936
C           -0.45558644294712        1.99524112755272        0.47067380799077
N           -0.67164366151865        2.93626642345758        1.41663193204071
N           -1.45916238978916        1.17667800609807        0.23418993019706
C           -1.55882696988075       -0.08653396155840       -0.03693393496652
H           -3.34630628604409       -2.85097205197579       -0.37864425631400
H           -0.86052231770807       -3.36520897653840        0.29588607855811
H            1.37907439587988       -3.12652111378039        0.98730957198419
H            5.01084849519831       -0.58697226841300        0.14795324832849
H            4.33805010510523        0.94873799455859       -0.13928455824838
H            3.02056434387365        1.06367921471593       -2.03331519293912
H            2.19922454670625        2.58966024969692       -2.05186422823771
H           -1.59636453117682        3.01419535597743        1.80393760740566
H           -0.05781725723890        3.73087472382656        1.45459501934824
