30
 energy: -50.883977252657 gnorm: 0.000564804231 xtb: 6.6.1 (8d0f1dd)
N           -4.70580888272002       -1.01370132476895        0.31197139718750
C           -3.73965623633141       -0.39539773741173        0.21678404404273
C           -2.54482063892434        0.31695509206598        0.12085140838180
C           -2.40711056936534        1.67577168071696       -0.09384201052732
C           -1.03463874432419        1.99341653413742       -0.12888870078607
C           -0.58175668182054        3.29111448133701       -0.38309304571992
N           -0.28278532728052        4.37558406117044       -0.62282450261365
C           -0.27012188423300        0.81642081946881        0.02968520006506
C            1.10707605091047        0.81825297756397        0.25671808275823
C            1.78578869622316        1.97291667572755        0.70158413044116
C            3.13514064431275        1.70447572049107        0.78805722067358
C            3.36002338010654        0.40166905340492        0.32588387528870
C            2.13927511063511       -0.20182352818807        0.02199473645725
C            2.08453333316480       -1.50238477482976       -0.54025679489345
N            3.20355346785440       -1.87863134029106       -1.21057614144103
C            1.13590700297753       -2.51923735184265       -0.38267221459599
C           -0.13476767483165       -2.61783209840749        0.16956783772077
N           -0.55456086959799       -3.88407673511615        0.45775749654416
C           -1.13847575628757       -1.63612206066686        0.36202181643175
C           -1.23859813201028       -0.28934188599503        0.15129511819886
H           -3.20833370479253        2.38178277129375       -0.22039736903372
H            1.31225131818251        2.89051177051304        0.99034606692781
H            3.89195612501714        2.37527991882422        1.15086679516360
H            4.32417547220530       -0.07555856343064        0.30910207389901
H            3.31271374524168       -2.81491223215869       -1.55650963775888
H            3.92875841615106       -1.20813504073186       -1.38776579881053
H            1.52236937570726       -3.48565842599608       -0.69945091170816
H            0.02169215443611       -4.67454659921075        0.23001335552319
H           -1.51909309950382       -4.05733831329327        0.67913847280845
H           -2.09467159910425       -2.08419951457603        0.62509190907437
