29
 energy: -46.348153760736 gnorm: 0.000894497664 xtb: 6.6.1 (8d0f1dd)
N           -4.12765270808132        1.61799059142412       -1.18821026221177
C           -3.11756071287041        1.32811057247229       -0.72359906540421
C           -1.85118082892596        1.00476647767535       -0.17881018264617
C           -1.03006394732553        2.09129130838272       -0.01730191113320
C            0.25062116154180        2.25082695176855        0.54084086398897
C            1.35476393223604        1.44172685124850        0.61659875981092
N            2.47518876038362        1.99322831252774        1.21451090051047
C            1.60238988484392        0.16070209637431       -0.00110517039854
C            2.85405225892878       -0.21288368019521       -0.46408423050578
N            3.98388579581059        0.55307566969698       -0.60052432293822
C            2.83801554502149       -1.61795232502330       -0.79014531334240
C            1.62852790372620       -2.12011078151467       -0.46921291588279
C            0.76784603486537       -1.03449944976274       -0.02444829756707
C           -0.55127748761818       -1.26170763910846        0.25364669807820
C           -1.07089730054380       -2.58144428858406        0.52360448278454
C           -2.41581548224948       -2.50475170651136        0.67676908536176
C           -2.82987131672503       -1.15695577005891        0.43393852652611
C           -1.73043538938918       -0.37185077667217        0.21233002262214
H           -1.50175968719294        3.03658869123581       -0.27403483325983
H            0.41725635605759        3.25272734835282        0.92801992285364
H            3.16422681317224        1.34649328306148        1.56197039796137
H            2.31654911669511        2.79933831329471        1.79857689203511
H            4.67314117467942        0.20036083673947       -1.24510402630891
H            3.84781245428533        1.55217112794524       -0.62256254575966
H            3.67241698295938       -2.14586136892556       -1.21556363186317
H            1.29521450674608       -3.12648925774570       -0.62672220117787
H           -0.46323382068991       -3.45316284735569        0.67105286650842
H           -3.07993484770521       -3.31026711104446        0.93358416153379
H           -3.85048240623596       -0.82031215779784        0.43357628072419
