29
 energy: -51.168374202743 gnorm: 0.000730713077 xtb: 6.6.1 (8d0f1dd)
N            4.58008994662499        2.51167902396976        0.33739409505228
C            3.65728918323193        1.83421917792448        0.23784594758438
C            2.55557382174365        0.98342961322198        0.10320972751917
C            2.62710128052398       -0.36829080726849       -0.30764171777712
C            1.36130867380051       -0.93468335521644       -0.24572415718787
C            1.16610662072842       -2.30158438048662       -0.63965674356786
N            2.01921634242700       -2.75510864491552       -1.58796970439302
C            0.37882341862369       -3.25747091825763       -0.00236296902935
C           -0.70060879826542       -3.08689693814221        0.86135515634069
N           -1.64266824174220       -2.20223361994736        0.82390766155270
C           -1.88166333169541       -1.01706122238158        0.34726019858943
C           -3.17758845473445       -0.54983728073290        0.11220301973240
C           -3.13173141444978        0.83320948994266       -0.03907275809641
N           -4.15631416819737        1.66484137463626       -0.26199415278607
C           -1.76365383063104        1.27200607917271        0.07787016786480
C           -1.43608858235877        2.61856156777880       -0.05143002669468
N           -1.28052362298692        3.75367258920859       -0.17308840249074
C           -0.94767992271376        0.15179727136604        0.22924783595385
C            0.44738984536882        0.12844513852330        0.17937664735268
C            1.22479952400726        1.29205284877270        0.34830470259066
H            3.54966890875282       -0.87071578879099       -0.53963769726344
H            2.07745600514001       -3.73822142045983       -1.78884422754071
H            2.71528157485636       -2.14298548557620       -1.97469245320853
H            0.68278945366671       -4.28579652385573       -0.16315378586652
H           -0.90761956269593       -3.90101146619522        1.55360740951322
H           -4.06032003427484       -1.15857525140054        0.10574928052217
H           -3.99240127395364        2.65636360131867       -0.31773025324814
H           -5.09139318557243        1.31179850276972       -0.36133271843236
H            0.85302599197602        2.24541155382057        0.66994942381331
