25
 energy: -49.066408795818 gnorm: 0.000989820386 xtb: 6.6.1 (8d0f1dd)
N            0.70177484290078        5.00753544033783        0.36351871626637
C            0.58496327365161        3.88112479702288        0.18788050059491
C            0.44053294676986        2.48873730895239       -0.03483482030345
C            1.56496004921007        1.87084921792369       -0.66702406294003
N            1.99547021888334        0.68527652261118       -0.49550253005172
C            1.66862155734976       -0.51303237483840       -0.16229700178197
C            2.54251761861538       -1.54908568118141        0.22387617395546
C            3.88927913524321       -1.42754200174701        0.57381309525398
N            4.99443756777912       -1.33372394186197        0.86912820424450
C            1.80320122573239       -2.74246226113831        0.07231643413220
N            0.54607869285256       -2.53967216616226       -0.28297040548515
C            0.34196273200684       -1.21540158429736       -0.33107567717279
C           -0.91854366501662       -0.66710797937206       -0.25261903705360
C           -2.06244534724277       -1.51031779335879       -0.27065277103858
C           -3.18548829870265       -0.74550079604230       -0.02095666713712
C           -4.51585200571236       -1.19274753722272        0.00460932076522
N           -5.60607088522669       -1.54743152623234        0.03080053680383
C           -2.77386784255357        0.59372424343576        0.21708522308378
C           -1.39823320025770        0.69778848668887        0.06417926220389
C           -0.78406905317668        1.94549548591365        0.28419781306165
H            2.20297547371062        2.51099660550998       -1.27141673767761
H            2.18315450930120       -3.74036662681177        0.20172599277580
H           -2.02120102356239       -2.56507300894296       -0.46151402929247
H           -3.43937895749816        1.39982958349504        0.46756744483178
H           -1.48197550775662        2.67466056631958        0.68840966566096
