34
 energy: -62.592692673880 gnorm: 0.000686016161 xtb: 6.6.1 (8d0f1dd)
N           -0.04423430919017        5.22959626610371       -0.06937498254900
C           -0.19487344533021        4.08820063356996       -0.04911326874565
C           -0.34348621142315        2.68442194492302       -0.01956273726506
C            0.89964616567089        2.05282207872373       -0.00071671756735
C            1.41885969174228        0.77512965688163        0.01426328670367
C            2.83132614091100        0.60816569338353        0.04243580080523
N            3.78534916457069        1.55776331852919        0.08656954911388
C            3.14565990872598       -0.77189409048184        0.01664361486654
C            4.43214469186422       -1.30559035108021        0.03643352716127
N            5.49841184597989       -1.73879795379465        0.05612059120558
C            1.95093653413316       -1.50391561498143       -0.02667367277301
N            1.84533497069324       -2.82907971184048       -0.07027420521275
C            0.83413772106999       -0.58214321509898       -0.01788384566758
C           -0.45433284219538       -1.05107034916948       -0.02344197200764
N           -0.65958237913637       -2.40811044474309       -0.04633938393818
C           -1.96331993083881       -2.63357926976187       -0.01649235049862
N           -2.49044148177950       -3.86425029194095       -0.02410556750720
C           -2.70817375125795       -1.41584950357076        0.02304796664817
C           -4.09264270345661       -1.34162741462924        0.05923760944837
N           -5.24461961634536       -1.31492775156456        0.08838571179277
C           -1.77523173811251       -0.36296012604661        0.01139875575858
C           -2.23486082390969        0.94346596193195        0.02464215102244
C           -1.69485964081278        2.22976613486418       -0.00102303994980
N           -2.62426731768706        3.22014531610848       -0.00383416214569
H            1.68574483091059        2.80534976107889       -0.00214647424457
H            4.74969021629864        1.27717658216798        0.11261605062652
H            3.56748619556366        2.53635462081958        0.12662433117058
H            0.87867727147757       -3.17125474133880       -0.07655488221983
H            2.66820893553295       -3.40633436052860       -0.05159281891861
H           -3.48755486929617       -3.98253375193096        0.00196585231091
H           -1.89082191017217       -4.66879441077505       -0.05455698264812
H           -3.32275492286394        0.96853533625739        0.04957944838361
H           -2.34535758343556        4.18664124441816       -0.01930845359012
H           -3.60342246319531        2.99605038660864        0.01047297643421
